version 3
run General-0-20230329-18:57:39-239290
attr configname General
attr datetime 20230329-18:57:39
attr datetimef 20230329-185739
attr experiment General
attr inifile omnetpp.ini
attr iterationvars ""
attr iterationvarsd ""
attr iterationvarsf ""
attr measurement ""
attr network NSA_TwoGnbs
attr processid 239290
attr repetition 0
attr replication #0
attr resultdir results
attr runnumber 0
attr seedset 0
config image-path ../../../images:../../../../inet4.4/images
config network NSA_TwoGnbs
config description "Dual connectivity, secondary only with handover, Voice-over-IP (downlink)"
config image-path ../../../images
config output-scalar-file-append false
config sim-time-limit 20s
config seed-set 0
config output-scalar-file results/General/-0.sca
config output-vector-file results/General/-0.vec
config **.sctp.**.scalar-recording false
config **.sctp.**.vector-recording false
config **.routingRecorder.enabled false
config **.measuredSinrDl:vector.vector-recording true
config **.measuredSinrUl:vector.vector-recording true
config **.rsrp:vector.vector-recording true
config **.scalar-recording false
config **.vector-recording false
config **.mobility.constraintAreaMaxX 1000m
config **.mobility.constraintAreaMaxY 600m
config **.mobility.constraintAreaMinX 0m
config **.mobility.constraintAreaMinY 0m
config **.mobility.constraintAreaMinZ 0m
config **.mobility.constraintAreaMaxZ 0m
config **.mobility.initFromDisplayString false
config *.visualizer.*.mobilityVisualizer.displayMobility true
config *.visualizer.*.mobilityVisualizer.displayPositions true
config *.visualizer.*.mobilityVisualizer.displayOrientations true
config *.visualizer.*.mobilityVisualizer.displayVelocities true
config *.visualizer.*.mobilityVisualizer.displayMovementTrails true
config **.numBands 50
config **.ueTxPower 26
config **.eNodeBTxPower 40
config **.targetBler 0.01
config **.blerShift 5
config **.sctp.nagleEnabled false
config **.sctp.enableHeartbeats false
config *.configurator.config "xmldoc(\"./demo.xml\")"
config *.masterEnb.mobility.initialX 525m
config *.masterEnb.mobility.initialY 243m
config *.secondaryGnb1.mobility.initialX 320m
config *.secondaryGnb1.mobility.initialY 326m
config *.secondaryGnb2.mobility.initialX 726m
config *.secondaryGnb2.mobility.initialY 326m
config *.masterEnb.nicType "\"LteNicEnbD2D\""
config *.masterEnb.cellularNic.LtePdcpRrcType "\"NRPdcpRrcEnb\""
config *.secondaryGnb*.masterId 1
config **.dualConnectivityEnabled true
config *.*nb*.numX2Apps 2
config *.*nb*.x2App[*].server.localPort "5000 + ancestorIndex(1)"
config *.masterEnb.x2App[0].client.connectAddress "\"secondaryGnb1%x2ppp0\""
config *.masterEnb.x2App[1].client.connectAddress "\"secondaryGnb2%x2ppp1\""
config *.secondaryGnb1.x2App[0].client.connectAddress "\"masterEnb%x2ppp0\""
config *.secondaryGnb1.x2App[1].client.connectAddress "\"secondaryGnb2%x2ppp1\""
config *.secondaryGnb2.x2App[0].client.connectAddress "\"masterEnb%x2ppp0\""
config *.secondaryGnb2.x2App[1].client.connectAddress "\"secondaryGnb1%x2ppp1\""
config *.numUe 1
config **.dynamicCellAssociation true
config *.ue[0].macCellId 1
config *.ue[0].masterId 1
config *.ue[0].nrMacCellId 2
config *.ue[0].nrMasterId 2
config *.ue[1].macCellId 1
config *.ue[1].masterId 1
config *.ue[1].nrMacCellId 3
config *.ue[1].nrMasterId 3
config *.ue*.mobility.typename LinearMobility
config *.ue*.mobility.speed 10mps
config *.ue[0].mobility.initialX 614m
config *.ue[0].mobility.initialY 471m
config *.secondaryGnb*.cellularNic.phy.enableHandover true
config *.ue*.cellularNic.nrPhy.enableHandover true
config *.ue[*].numApps 1
config *.server.numApps 1
config *.ue[*].app[*].typename VoIPReceiver
config *.ue[*].app[*].localPort 3000+ancestorIndex(0)
config *.server.app[*].typename VoIPSender
config *.server.app[*].PacketSize 40
config *.server.app[*].destAddress "\"ue[0]\""
config *.server.app[*].localPort 3088+ancestorIndex(0)
config *.server.app[*].destPort 3000+ancestorIndex(0)
config *.server.app[*].startTime uniform(0s,0.02s)
config *.server.app[*].tos 10

par NSA_TwoGnbs.server.pppg$o[0].channel typename "\"inet.node.ethernet.Eth10G\""
par NSA_TwoGnbs.server.pppg$o[0].channel disabled false
attr mutable ""
par NSA_TwoGnbs.server.pppg$o[0].channel delay 5e-08s
attr mutable ""
attr unit s
par NSA_TwoGnbs.server.pppg$o[0].channel datarate 1e+10bps
attr mutable ""
attr unit bps
par NSA_TwoGnbs.server.pppg$o[0].channel ber 0
attr mutable ""
par NSA_TwoGnbs.server.pppg$o[0].channel per 0
attr mutable ""
par NSA_TwoGnbs.server.pppg$o[0].channel length 10m
attr unit m
par NSA_TwoGnbs.router.pppg$o[0].channel typename "\"inet.node.ethernet.Eth10G\""
par NSA_TwoGnbs.router.pppg$o[0].channel disabled false
attr mutable ""
par NSA_TwoGnbs.router.pppg$o[0].channel delay 5e-08s
attr mutable ""
attr unit s
par NSA_TwoGnbs.router.pppg$o[0].channel datarate 1e+10bps
attr mutable ""
attr unit bps
par NSA_TwoGnbs.router.pppg$o[0].channel ber 0
attr mutable ""
par NSA_TwoGnbs.router.pppg$o[0].channel per 0
attr mutable ""
par NSA_TwoGnbs.router.pppg$o[0].channel length 10m
attr unit m
par NSA_TwoGnbs.router.pppg$o[1].channel typename "\"inet.node.ethernet.Eth10G\""
par NSA_TwoGnbs.router.pppg$o[1].channel disabled false
attr mutable ""
par NSA_TwoGnbs.router.pppg$o[1].channel delay 5e-08s
attr mutable ""
attr unit s
par NSA_TwoGnbs.router.pppg$o[1].channel datarate 1e+10bps
attr mutable ""
attr unit bps
par NSA_TwoGnbs.router.pppg$o[1].channel ber 0
attr mutable ""
par NSA_TwoGnbs.router.pppg$o[1].channel per 0
attr mutable ""
par NSA_TwoGnbs.router.pppg$o[1].channel length 10m
attr unit m
par NSA_TwoGnbs.pgw.filterGate$o.channel typename "\"inet.node.ethernet.Eth10G\""
par NSA_TwoGnbs.pgw.filterGate$o.channel disabled false
attr mutable ""
par NSA_TwoGnbs.pgw.filterGate$o.channel delay 5e-08s
attr mutable ""
attr unit s
par NSA_TwoGnbs.pgw.filterGate$o.channel datarate 1e+10bps
attr mutable ""
attr unit bps
par NSA_TwoGnbs.pgw.filterGate$o.channel ber 0
attr mutable ""
par NSA_TwoGnbs.pgw.filterGate$o.channel per 0
attr mutable ""
par NSA_TwoGnbs.pgw.filterGate$o.channel length 10m
attr unit m
par NSA_TwoGnbs.pgw.pppg$o[0].channel typename "\"inet.node.ethernet.Eth10G\""
par NSA_TwoGnbs.pgw.pppg$o[0].channel disabled false
attr mutable ""
par NSA_TwoGnbs.pgw.pppg$o[0].channel delay 5e-08s
attr mutable ""
attr unit s
par NSA_TwoGnbs.pgw.pppg$o[0].channel datarate 1e+10bps
attr mutable ""
attr unit bps
par NSA_TwoGnbs.pgw.pppg$o[0].channel ber 0
attr mutable ""
par NSA_TwoGnbs.pgw.pppg$o[0].channel per 0
attr mutable ""
par NSA_TwoGnbs.pgw.pppg$o[0].channel length 10m
attr unit m
par NSA_TwoGnbs.masterEnb.ppp$o.channel typename "\"inet.node.ethernet.Eth10G\""
par NSA_TwoGnbs.masterEnb.ppp$o.channel disabled false
attr mutable ""
par NSA_TwoGnbs.masterEnb.ppp$o.channel delay 5e-08s
attr mutable ""
attr unit s
par NSA_TwoGnbs.masterEnb.ppp$o.channel datarate 1e+10bps
attr mutable ""
attr unit bps
par NSA_TwoGnbs.masterEnb.ppp$o.channel ber 0
attr mutable ""
par NSA_TwoGnbs.masterEnb.ppp$o.channel per 0
attr mutable ""
par NSA_TwoGnbs.masterEnb.ppp$o.channel length 10m
attr unit m
par NSA_TwoGnbs.masterEnb.x2$o[0].channel typename "\"inet.node.ethernet.Eth10G\""
par NSA_TwoGnbs.masterEnb.x2$o[0].channel disabled false
attr mutable ""
par NSA_TwoGnbs.masterEnb.x2$o[0].channel delay 5e-08s
attr mutable ""
attr unit s
par NSA_TwoGnbs.masterEnb.x2$o[0].channel datarate 1e+10bps
attr mutable ""
attr unit bps
par NSA_TwoGnbs.masterEnb.x2$o[0].channel ber 0
attr mutable ""
par NSA_TwoGnbs.masterEnb.x2$o[0].channel per 0
attr mutable ""
par NSA_TwoGnbs.masterEnb.x2$o[0].channel length 10m
attr unit m
par NSA_TwoGnbs.secondaryGnb1.x2$o[0].channel typename "\"inet.node.ethernet.Eth10G\""
par NSA_TwoGnbs.secondaryGnb1.x2$o[0].channel disabled false
attr mutable ""
par NSA_TwoGnbs.secondaryGnb1.x2$o[0].channel delay 5e-08s
attr mutable ""
attr unit s
par NSA_TwoGnbs.secondaryGnb1.x2$o[0].channel datarate 1e+10bps
attr mutable ""
attr unit bps
par NSA_TwoGnbs.secondaryGnb1.x2$o[0].channel ber 0
attr mutable ""
par NSA_TwoGnbs.secondaryGnb1.x2$o[0].channel per 0
attr mutable ""
par NSA_TwoGnbs.secondaryGnb1.x2$o[0].channel length 10m
attr unit m
par NSA_TwoGnbs.masterEnb.x2$o[1].channel typename "\"inet.node.ethernet.Eth10G\""
par NSA_TwoGnbs.masterEnb.x2$o[1].channel disabled false
attr mutable ""
par NSA_TwoGnbs.masterEnb.x2$o[1].channel delay 5e-08s
attr mutable ""
attr unit s
par NSA_TwoGnbs.masterEnb.x2$o[1].channel datarate 1e+10bps
attr mutable ""
attr unit bps
par NSA_TwoGnbs.masterEnb.x2$o[1].channel ber 0
attr mutable ""
par NSA_TwoGnbs.masterEnb.x2$o[1].channel per 0
attr mutable ""
par NSA_TwoGnbs.masterEnb.x2$o[1].channel length 10m
attr unit m
par NSA_TwoGnbs.secondaryGnb2.x2$o[0].channel typename "\"inet.node.ethernet.Eth10G\""
par NSA_TwoGnbs.secondaryGnb2.x2$o[0].channel disabled false
attr mutable ""
par NSA_TwoGnbs.secondaryGnb2.x2$o[0].channel delay 5e-08s
attr mutable ""
attr unit s
par NSA_TwoGnbs.secondaryGnb2.x2$o[0].channel datarate 1e+10bps
attr mutable ""
attr unit bps
par NSA_TwoGnbs.secondaryGnb2.x2$o[0].channel ber 0
attr mutable ""
par NSA_TwoGnbs.secondaryGnb2.x2$o[0].channel per 0
attr mutable ""
par NSA_TwoGnbs.secondaryGnb2.x2$o[0].channel length 10m
attr unit m
par NSA_TwoGnbs.secondaryGnb1.x2$o[1].channel typename "\"inet.node.ethernet.Eth10G\""
par NSA_TwoGnbs.secondaryGnb1.x2$o[1].channel disabled false
attr mutable ""
par NSA_TwoGnbs.secondaryGnb1.x2$o[1].channel delay 5e-08s
attr mutable ""
attr unit s
par NSA_TwoGnbs.secondaryGnb1.x2$o[1].channel datarate 1e+10bps
attr mutable ""
attr unit bps
par NSA_TwoGnbs.secondaryGnb1.x2$o[1].channel ber 0
attr mutable ""
par NSA_TwoGnbs.secondaryGnb1.x2$o[1].channel per 0
attr mutable ""
par NSA_TwoGnbs.secondaryGnb1.x2$o[1].channel length 10m
attr unit m
par NSA_TwoGnbs.secondaryGnb2.x2$o[1].channel typename "\"inet.node.ethernet.Eth10G\""
par NSA_TwoGnbs.secondaryGnb2.x2$o[1].channel disabled false
attr mutable ""
par NSA_TwoGnbs.secondaryGnb2.x2$o[1].channel delay 5e-08s
attr mutable ""
attr unit s
par NSA_TwoGnbs.secondaryGnb2.x2$o[1].channel datarate 1e+10bps
attr mutable ""
attr unit bps
par NSA_TwoGnbs.secondaryGnb2.x2$o[1].channel ber 0
attr mutable ""
par NSA_TwoGnbs.secondaryGnb2.x2$o[1].channel per 0
attr mutable ""
par NSA_TwoGnbs.secondaryGnb2.x2$o[1].channel length 10m
attr unit m
par NSA_TwoGnbs.channelControl typename "\"simu5g.world.radio.LteChannelControl\""
par NSA_TwoGnbs.channelControl coreDebug false
par NSA_TwoGnbs.channelControl pMax 20mW
attr unit mW
par NSA_TwoGnbs.channelControl sat -110dBm
attr unit dBm
par NSA_TwoGnbs.channelControl alpha 2
par NSA_TwoGnbs.channelControl carrierFrequency 2.4e+09Hz
attr unit Hz
par NSA_TwoGnbs.channelControl numChannels 1
par NSA_TwoGnbs.channelControl propagationModel "\"FreeSpaceModel\""
attr enum FreeSpaceModel,TwoRayGroundModel,RiceModel,RayleighModel,NakagamiModel,LogNormalShadowingModel
par NSA_TwoGnbs.routingRecorder typename "\"inet.networklayer.ipv4.RoutingTableRecorder\""
par NSA_TwoGnbs.routingRecorder enabled false
par NSA_TwoGnbs.configurator typename "\"inet.networklayer.configurator.ipv4.Ipv4NetworkConfigurator\""
par NSA_TwoGnbs.configurator minLinkWeight 0.001
par NSA_TwoGnbs.configurator configureIsolatedNetworksSeparatly false
par NSA_TwoGnbs.configurator config "<config>...</config> at /home/kvasir/Documents/Ericsson_Project/Omnetpp/omnetpp-6.0.1/samples/Simu5G/simulations/Custom/handover//./demo.xml:1"
par NSA_TwoGnbs.configurator assignAddresses true
par NSA_TwoGnbs.configurator assignUniqueAddresses true
par NSA_TwoGnbs.configurator assignDisjunctSubnetAddresses true
par NSA_TwoGnbs.configurator addStaticRoutes true
par NSA_TwoGnbs.configurator addDefaultRoutes true
par NSA_TwoGnbs.configurator addSubnetRoutes true
par NSA_TwoGnbs.configurator addDirectRoutes true
par NSA_TwoGnbs.configurator optimizeRoutes true
par NSA_TwoGnbs.configurator dumpTopology false
par NSA_TwoGnbs.configurator dumpLinks false
par NSA_TwoGnbs.configurator dumpAddresses false
par NSA_TwoGnbs.configurator dumpRoutes false
par NSA_TwoGnbs.configurator dumpConfig "\"\""
par NSA_TwoGnbs.binder typename "\"simu5g.common.binder.Binder\""
par NSA_TwoGnbs.binder blerShift 5
par NSA_TwoGnbs.binder maxDataRatePerRb 1.16Mbps
attr unit Mbps
par NSA_TwoGnbs.binder printTrafficGeneratorConfig false
par NSA_TwoGnbs.carrierAggregation.componentCarrier[0] typename "\"simu5g.common.carrierAggregation.ComponentCarrier\""
par NSA_TwoGnbs.carrierAggregation.componentCarrier[0] carrierFrequency 2GHz
attr unit GHz
par NSA_TwoGnbs.carrierAggregation.componentCarrier[0] numBands 50
par NSA_TwoGnbs.carrierAggregation.componentCarrier[0] numerologyIndex 0
par NSA_TwoGnbs.carrierAggregation.componentCarrier[0] useTdd false
par NSA_TwoGnbs.carrierAggregation.componentCarrier[0] tddNumSymbolsDl 7
par NSA_TwoGnbs.carrierAggregation.componentCarrier[0] tddNumSymbolsUl 7
par NSA_TwoGnbs.carrierAggregation typename "\"simu5g.common.carrierAggregation.CarrierAggregation\""
par NSA_TwoGnbs.carrierAggregation numComponentCarriers 1
par NSA_TwoGnbs.server.pppg$i[0].channel typename "\"ned.IdealChannel\""
par NSA_TwoGnbs.server.ppp[0].phys$o.channel typename "\"ned.IdealChannel\""
par NSA_TwoGnbs.server.interfaceTable typename "\"inet.networklayer.common.InterfaceTable\""
par NSA_TwoGnbs.server.interfaceTable displayAddresses false
par NSA_TwoGnbs.server.cb typename "\"inet.common.MessageDispatcher\""
par NSA_TwoGnbs.server.cb displayStringTextFormat "\"processed %p pk (%l)\""
par NSA_TwoGnbs.server.cb forwardServiceRegistration true
par NSA_TwoGnbs.server.cb forwardProtocolRegistration true
par NSA_TwoGnbs.server.bl typename "\"inet.common.MessageDispatcher\""
par NSA_TwoGnbs.server.bl displayStringTextFormat "\"processed %p pk (%l)\""
par NSA_TwoGnbs.server.bl forwardServiceRegistration true
par NSA_TwoGnbs.server.bl forwardProtocolRegistration true
par NSA_TwoGnbs.server.li typename "\"inet.common.MessageDispatcher\""
par NSA_TwoGnbs.server.li displayStringTextFormat "\"processed %p pk (%l)\""
par NSA_TwoGnbs.server.li forwardServiceRegistration true
par NSA_TwoGnbs.server.li forwardProtocolRegistration true
par NSA_TwoGnbs.server.lo[0].upperLayerIn.channel typename "\"ned.IdealChannel\""
par NSA_TwoGnbs.server.lo[0].lo.upperLayerOut.channel typename "\"ned.IdealChannel\""
par NSA_TwoGnbs.server.lo[0].lo typename "\"inet.linklayer.loopback.Loopback\""
par NSA_TwoGnbs.server.lo[0].lo interfaceTableModule "\"NSA_TwoGnbs.server.interfaceTable\""
par NSA_TwoGnbs.server.lo[0].lo mtu 4470B
attr unit B
par NSA_TwoGnbs.server.lo[0] typename "\"inet.linklayer.loopback.LoopbackInterface\""
par NSA_TwoGnbs.server.lo[0] displayStringTextFormat "\"%a (%i)\\n%m\""
par NSA_TwoGnbs.server.lo[0] recordPcap false
par NSA_TwoGnbs.server.lo[0] numPcapRecorders 0
par NSA_TwoGnbs.server.lo[0] interfaceTableModule "\"NSA_TwoGnbs.server.interfaceTable\""
par NSA_TwoGnbs.server.ppp[0].phys$i.channel typename "\"ned.IdealChannel\""
par NSA_TwoGnbs.server.ppp[0].ppp.phys$o.channel typename "\"ned.IdealChannel\""
par NSA_TwoGnbs.server.ppp[0].ppp.upperLayerOut.channel typename "\"ned.IdealChannel\""
par NSA_TwoGnbs.server.ppp[0].upperLayerIn.channel typename "\"ned.IdealChannel\""
par NSA_TwoGnbs.server.ppp[0].queue typename "\"inet.queueing.queue.DropTailQueue\""
par NSA_TwoGnbs.server.ppp[0].queue displayStringTextFormat "\"contains %p pk (%l) pushed %u\\npulled %o removed %r dropped %d\""
par NSA_TwoGnbs.server.ppp[0].queue packetCapacity 10000
par NSA_TwoGnbs.server.ppp[0].queue dataCapacity -1b
attr unit b
par NSA_TwoGnbs.server.ppp[0].queue dropperClass "\"inet::queueing::PacketAtCollectionEndDropper\""
par NSA_TwoGnbs.server.ppp[0].queue comparatorClass "\"\""
par NSA_TwoGnbs.server.ppp[0].queue bufferModule "\"\""
par NSA_TwoGnbs.server.ppp[0].ppp typename "\"inet.linklayer.ppp.Ppp\""
par NSA_TwoGnbs.server.ppp[0].ppp interfaceTableModule "\"NSA_TwoGnbs.server.interfaceTable\""
par NSA_TwoGnbs.server.ppp[0].ppp displayStringTextFormat "\"rate: %b\\nsent: %s, rcvd: %r\\nqueue: %q, drop: %d\""
par NSA_TwoGnbs.server.ppp[0].ppp sendRawBytes false
par NSA_TwoGnbs.server.ppp[0].ppp mtu 4470B
attr unit B
par NSA_TwoGnbs.server.ppp[0].ppp stopOperationExtraTime -1s
attr unit s
par NSA_TwoGnbs.server.ppp[0].ppp stopOperationTimeout 2s
attr unit s
par NSA_TwoGnbs.server.ppp[0] typename "\"inet.linklayer.ppp.PppInterface\""
par NSA_TwoGnbs.server.ppp[0] displayStringTextFormat "\"%a (%i)\\n%m\""
par NSA_TwoGnbs.server.ppp[0] recordPcap false
par NSA_TwoGnbs.server.ppp[0] numPcapRecorders 0
par NSA_TwoGnbs.server.ppp[0] interfaceTableModule "\"NSA_TwoGnbs.server.interfaceTable\""
par NSA_TwoGnbs.server.ipv4.transportIn.channel typename "\"ned.IdealChannel\""
par NSA_TwoGnbs.server.ipv4.up.out[0].channel typename "\"ned.IdealChannel\""
par NSA_TwoGnbs.server.ipv4.lp.out[2].channel typename "\"ned.IdealChannel\""
par NSA_TwoGnbs.server.ipv4.ifIn.channel typename "\"ned.IdealChannel\""
par NSA_TwoGnbs.server.ipv4.configurator typename "\"inet.networklayer.configurator.ipv4.Ipv4NodeConfigurator\""
par NSA_TwoGnbs.server.ipv4.configurator interfaceTableModule "\"NSA_TwoGnbs.server.interfaceTable\""
par NSA_TwoGnbs.server.ipv4.configurator routingTableModule "\"NSA_TwoGnbs.server.ipv4.routingTable\""
par NSA_TwoGnbs.server.ipv4.configurator networkConfiguratorModule "\"configurator\""
par NSA_TwoGnbs.server.ipv4.configurator configureRoutingTable true
par NSA_TwoGnbs.server.ipv4.routingTable typename "\"inet.networklayer.ipv4.Ipv4RoutingTable\""
par NSA_TwoGnbs.server.ipv4.routingTable interfaceTableModule "\"NSA_TwoGnbs.server.interfaceTable\""
par NSA_TwoGnbs.server.ipv4.routingTable routerId "\"auto\""
par NSA_TwoGnbs.server.ipv4.routingTable netmaskRoutes "\"*\""
par NSA_TwoGnbs.server.ipv4.routingTable forwarding false
par NSA_TwoGnbs.server.ipv4.routingTable multicastForwarding false
par NSA_TwoGnbs.server.ipv4.routingTable useAdminDist false
par NSA_TwoGnbs.server.ipv4.routingTable routingFile "\"\""
par NSA_TwoGnbs.server.ipv4.natTable typename "\"inet.networklayer.ipv4.Ipv4NatTable\""
par NSA_TwoGnbs.server.ipv4.natTable networkProtocolModule "\"^.ip\""
par NSA_TwoGnbs.server.ipv4.natTable config "<config/> at content:1"
par NSA_TwoGnbs.server.ipv4.up typename "\"inet.common.MessageDispatcher\""
par NSA_TwoGnbs.server.ipv4.up displayStringTextFormat "\"processed %p pk (%l)\""
par NSA_TwoGnbs.server.ipv4.up forwardServiceRegistration true
par NSA_TwoGnbs.server.ipv4.up forwardProtocolRegistration true
par NSA_TwoGnbs.server.ipv4.igmp typename "\"inet.networklayer.ipv4.Igmpv2\""
par NSA_TwoGnbs.server.ipv4.igmp interfaceTableModule "\"NSA_TwoGnbs.server.interfaceTable\""
par NSA_TwoGnbs.server.ipv4.igmp routingTableModule "\"NSA_TwoGnbs.server.ipv4.routingTable\""
par NSA_TwoGnbs.server.ipv4.igmp crcMode "\"declared\""
attr enum declared,computed
par NSA_TwoGnbs.server.ipv4.igmp enabled true
par NSA_TwoGnbs.server.ipv4.igmp robustnessVariable 2
par NSA_TwoGnbs.server.ipv4.igmp queryInterval 125s
attr unit s
par NSA_TwoGnbs.server.ipv4.igmp queryResponseInterval 10s
attr unit s
par NSA_TwoGnbs.server.ipv4.igmp groupMembershipInterval 260s
attr unit s
par NSA_TwoGnbs.server.ipv4.igmp otherQuerierPresentInterval 255s
attr unit s
par NSA_TwoGnbs.server.ipv4.igmp startupQueryInterval 31.25s
attr unit s
par NSA_TwoGnbs.server.ipv4.igmp startupQueryCount 2
par NSA_TwoGnbs.server.ipv4.igmp lastMemberQueryInterval 1s
attr unit s
par NSA_TwoGnbs.server.ipv4.igmp lastMemberQueryCount 2
par NSA_TwoGnbs.server.ipv4.igmp unsolicitedReportInterval 10s
attr unit s
par NSA_TwoGnbs.server.ipv4.icmp typename "\"inet.networklayer.ipv4.Icmp\""
par NSA_TwoGnbs.server.ipv4.icmp interfaceTableModule "\"NSA_TwoGnbs.server.interfaceTable\""
par NSA_TwoGnbs.server.ipv4.icmp routingTableModule "\"NSA_TwoGnbs.server.ipv4.routingTable\""
par NSA_TwoGnbs.server.ipv4.icmp crcMode "\"declared\""
attr enum declared,computed
attr mutable ""
par NSA_TwoGnbs.server.ipv4.icmp quoteLength 8B
attr mutable ""
attr unit B
par NSA_TwoGnbs.server.ipv4.mp typename "\"inet.common.MessageDispatcher\""
par NSA_TwoGnbs.server.ipv4.mp displayStringTextFormat "\"processed %p pk (%l)\""
par NSA_TwoGnbs.server.ipv4.mp forwardServiceRegistration true
par NSA_TwoGnbs.server.ipv4.mp forwardProtocolRegistration true
par NSA_TwoGnbs.server.ipv4.ip typename "\"inet.networklayer.ipv4.Ipv4\""
par NSA_TwoGnbs.server.ipv4.ip interfaceTableModule "\"NSA_TwoGnbs.server.interfaceTable\""
par NSA_TwoGnbs.server.ipv4.ip routingTableModule "\"NSA_TwoGnbs.server.ipv4.routingTable\""
par NSA_TwoGnbs.server.ipv4.ip arpModule "\"NSA_TwoGnbs.server.ipv4.arp\""
par NSA_TwoGnbs.server.ipv4.ip icmpModule "\"NSA_TwoGnbs.server.ipv4.icmp\""
par NSA_TwoGnbs.server.ipv4.ip crcMode "\"declared\""
attr enum declared,computed
par NSA_TwoGnbs.server.ipv4.ip timeToLive 32
par NSA_TwoGnbs.server.ipv4.ip multicastTimeToLive 32
par NSA_TwoGnbs.server.ipv4.ip fragmentTimeout 60s
attr unit s
par NSA_TwoGnbs.server.ipv4.ip limitedBroadcast false
par NSA_TwoGnbs.server.ipv4.ip directBroadcastInterfaces "\"\""
par NSA_TwoGnbs.server.ipv4.arp typename "\"inet.networklayer.arp.ipv4.Arp\""
par NSA_TwoGnbs.server.ipv4.arp interfaceTableModule "\"NSA_TwoGnbs.server.interfaceTable\""
par NSA_TwoGnbs.server.ipv4.arp routingTableModule "\"NSA_TwoGnbs.server.ipv4.routingTable\""
par NSA_TwoGnbs.server.ipv4.arp retryTimeout 1s
attr unit s
par NSA_TwoGnbs.server.ipv4.arp retryCount 3
par NSA_TwoGnbs.server.ipv4.arp cacheTimeout 120s
attr unit s
par NSA_TwoGnbs.server.ipv4.arp proxyArpInterfaces "\"\""
par NSA_TwoGnbs.server.ipv4.lp typename "\"inet.common.MessageDispatcher\""
par NSA_TwoGnbs.server.ipv4.lp displayStringTextFormat "\"processed %p pk (%l)\""
par NSA_TwoGnbs.server.ipv4.lp forwardServiceRegistration true
par NSA_TwoGnbs.server.ipv4.lp forwardProtocolRegistration true
par NSA_TwoGnbs.server.ipv4 typename "\"inet.networklayer.ipv4.Ipv4NetworkLayer\""
par NSA_TwoGnbs.server.ipv4 forwarding false
par NSA_TwoGnbs.server.ipv4 multicastForwarding false
par NSA_TwoGnbs.server.ipv4 interfaceTableModule "\"NSA_TwoGnbs.server.interfaceTable\""
par NSA_TwoGnbs.server.ipv4 displayStringTextFormat "\"%i\""
par NSA_TwoGnbs.server.nl typename "\"inet.common.MessageDispatcher\""
par NSA_TwoGnbs.server.nl displayStringTextFormat "\"processed %p pk (%l)\""
par NSA_TwoGnbs.server.nl forwardServiceRegistration true
par NSA_TwoGnbs.server.nl forwardProtocolRegistration true
par NSA_TwoGnbs.server.udp typename "\"inet.transportlayer.udp.Udp\""
par NSA_TwoGnbs.server.udp interfaceTableModule "\"NSA_TwoGnbs.server.interfaceTable\""
par NSA_TwoGnbs.server.udp icmpModule "\"^.ipv4.icmp\""
par NSA_TwoGnbs.server.udp icmpv6Module "\"^.ipv6.icmpv6\""
par NSA_TwoGnbs.server.udp crcMode "\"declared\""
attr enum disabled,declared,computed
par NSA_TwoGnbs.server.udp defaultMulticastLoop true
par NSA_TwoGnbs.server.tcp typename "\"inet.transportlayer.tcp.Tcp\""
par NSA_TwoGnbs.server.tcp crcMode "\"declared\""
attr enum declared,computed
par NSA_TwoGnbs.server.tcp advertisedWindow 7504
par NSA_TwoGnbs.server.tcp delayedAcksEnabled false
par NSA_TwoGnbs.server.tcp nagleEnabled true
par NSA_TwoGnbs.server.tcp limitedTransmitEnabled false
par NSA_TwoGnbs.server.tcp increasedIWEnabled false
par NSA_TwoGnbs.server.tcp sackSupport false
par NSA_TwoGnbs.server.tcp windowScalingSupport false
par NSA_TwoGnbs.server.tcp windowScalingFactor -1
par NSA_TwoGnbs.server.tcp timestampSupport false
par NSA_TwoGnbs.server.tcp mss 536
par NSA_TwoGnbs.server.tcp msl 120s
attr unit s
par NSA_TwoGnbs.server.tcp tcpAlgorithmClass "\"TcpReno\""
attr enum TcpVegas,TcpWestwood,TcpNewReno,TcpReno,TcpTahoe,TcpNoCongestionControl
par NSA_TwoGnbs.server.tcp useDataNotification false
par NSA_TwoGnbs.server.tcp dupthresh 3
par NSA_TwoGnbs.server.tcp initialSsthresh 4294967295
par NSA_TwoGnbs.server.tcp stopOperationExtraTime 0s
attr unit s
par NSA_TwoGnbs.server.tcp stopOperationTimeout 2s
attr unit s
par NSA_TwoGnbs.server.tcp ecnWillingness false
par NSA_TwoGnbs.server.tcp dctcpGamma 0.0625
par NSA_TwoGnbs.server.tn typename "\"inet.common.MessageDispatcher\""
par NSA_TwoGnbs.server.tn displayStringTextFormat "\"processed %p pk (%l)\""
par NSA_TwoGnbs.server.tn forwardServiceRegistration true
par NSA_TwoGnbs.server.tn forwardProtocolRegistration true
par NSA_TwoGnbs.server.app[0] typename "\"simu5g.apps.voip.VoIPSender\""
par NSA_TwoGnbs.server.app[0] localPort 3088
par NSA_TwoGnbs.server.app[0] destPort 3000
par NSA_TwoGnbs.server.app[0] destAddress "\"ue[0]\""
par NSA_TwoGnbs.server.app[0] PacketSize 40
par NSA_TwoGnbs.server.app[0] shape_talk 0.824
par NSA_TwoGnbs.server.app[0] scale_talk 1.423
par NSA_TwoGnbs.server.app[0] shape_sil 1.089
par NSA_TwoGnbs.server.app[0] scale_sil 0.899
par NSA_TwoGnbs.server.app[0] is_talk true
par NSA_TwoGnbs.server.app[0] sampling_time 0.02s
attr unit s
par NSA_TwoGnbs.server.app[0] startTime 0.0162304s
attr unit s
par NSA_TwoGnbs.server.app[0] silences true
par NSA_TwoGnbs.server.app[0] tos 10
par NSA_TwoGnbs.server.at typename "\"inet.common.MessageDispatcher\""
par NSA_TwoGnbs.server.at displayStringTextFormat "\"processed %p pk (%l)\""
par NSA_TwoGnbs.server.at forwardServiceRegistration true
par NSA_TwoGnbs.server.at forwardProtocolRegistration true
par NSA_TwoGnbs.server typename "\"inet.node.inet.StandardHost\""
par NSA_TwoGnbs.server hasStatus false
par NSA_TwoGnbs.server osgModel "\"\""
par NSA_TwoGnbs.server osgModelColor "\"\""
par NSA_TwoGnbs.server canvasImage "\"\""
par NSA_TwoGnbs.server canvasImageColor "\"\""
par NSA_TwoGnbs.server recordPcap false
par NSA_TwoGnbs.server numPcapRecorders 0
par NSA_TwoGnbs.server numLoInterfaces 1
par NSA_TwoGnbs.server numWlanInterfaces 0
par NSA_TwoGnbs.server numEthInterfaces 0
par NSA_TwoGnbs.server numPppInterfaces 0
par NSA_TwoGnbs.server numTunInterfaces 0
par NSA_TwoGnbs.server numVirtInterfaces 0
par NSA_TwoGnbs.server fcsMode "\"declared\""
attr enum declared,computed
par NSA_TwoGnbs.server hasIpv4 true
par NSA_TwoGnbs.server hasIpv6 false
par NSA_TwoGnbs.server hasGn false
par NSA_TwoGnbs.server forwarding false
par NSA_TwoGnbs.server multicastForwarding false
par NSA_TwoGnbs.server hasUdp true
par NSA_TwoGnbs.server hasTcp true
par NSA_TwoGnbs.server hasSctp false
par NSA_TwoGnbs.server numApps 1
par NSA_TwoGnbs.router.pppg$i[0].channel typename "\"ned.IdealChannel\""
par NSA_TwoGnbs.router.ppp[0].phys$o.channel typename "\"ned.IdealChannel\""
par NSA_TwoGnbs.router.pppg$i[1].channel typename "\"ned.IdealChannel\""
par NSA_TwoGnbs.router.ppp[1].phys$o.channel typename "\"ned.IdealChannel\""
par NSA_TwoGnbs.router.interfaceTable typename "\"inet.networklayer.common.InterfaceTable\""
par NSA_TwoGnbs.router.interfaceTable displayAddresses false
par NSA_TwoGnbs.router.cb typename "\"inet.common.MessageDispatcher\""
par NSA_TwoGnbs.router.cb displayStringTextFormat "\"processed %p pk (%l)\""
par NSA_TwoGnbs.router.cb forwardServiceRegistration true
par NSA_TwoGnbs.router.cb forwardProtocolRegistration true
par NSA_TwoGnbs.router.bl typename "\"inet.common.MessageDispatcher\""
par NSA_TwoGnbs.router.bl displayStringTextFormat "\"processed %p pk (%l)\""
par NSA_TwoGnbs.router.bl forwardServiceRegistration true
par NSA_TwoGnbs.router.bl forwardProtocolRegistration true
par NSA_TwoGnbs.router.li typename "\"inet.common.MessageDispatcher\""
par NSA_TwoGnbs.router.li displayStringTextFormat "\"processed %p pk (%l)\""
par NSA_TwoGnbs.router.li forwardServiceRegistration true
par NSA_TwoGnbs.router.li forwardProtocolRegistration true
par NSA_TwoGnbs.router.lo[0].upperLayerIn.channel typename "\"ned.IdealChannel\""
par NSA_TwoGnbs.router.lo[0].lo.upperLayerOut.channel typename "\"ned.IdealChannel\""
par NSA_TwoGnbs.router.lo[0].lo typename "\"inet.linklayer.loopback.Loopback\""
par NSA_TwoGnbs.router.lo[0].lo interfaceTableModule "\"NSA_TwoGnbs.router.interfaceTable\""
par NSA_TwoGnbs.router.lo[0].lo mtu 4470B
attr unit B
par NSA_TwoGnbs.router.lo[0] typename "\"inet.linklayer.loopback.LoopbackInterface\""
par NSA_TwoGnbs.router.lo[0] displayStringTextFormat "\"%a (%i)\\n%m\""
par NSA_TwoGnbs.router.lo[0] recordPcap false
par NSA_TwoGnbs.router.lo[0] numPcapRecorders 0
par NSA_TwoGnbs.router.lo[0] interfaceTableModule "\"NSA_TwoGnbs.router.interfaceTable\""
par NSA_TwoGnbs.router.ppp[0].phys$i.channel typename "\"ned.IdealChannel\""
par NSA_TwoGnbs.router.ppp[0].ppp.phys$o.channel typename "\"ned.IdealChannel\""
par NSA_TwoGnbs.router.ppp[0].ppp.upperLayerOut.channel typename "\"ned.IdealChannel\""
par NSA_TwoGnbs.router.ppp[0].upperLayerIn.channel typename "\"ned.IdealChannel\""
par NSA_TwoGnbs.router.ppp[0].queue typename "\"inet.queueing.queue.DropTailQueue\""
par NSA_TwoGnbs.router.ppp[0].queue displayStringTextFormat "\"contains %p pk (%l) pushed %u\\npulled %o removed %r dropped %d\""
par NSA_TwoGnbs.router.ppp[0].queue packetCapacity 10000
par NSA_TwoGnbs.router.ppp[0].queue dataCapacity -1b
attr unit b
par NSA_TwoGnbs.router.ppp[0].queue dropperClass "\"inet::queueing::PacketAtCollectionEndDropper\""
par NSA_TwoGnbs.router.ppp[0].queue comparatorClass "\"\""
par NSA_TwoGnbs.router.ppp[0].queue bufferModule "\"\""
par NSA_TwoGnbs.router.ppp[0].ppp typename "\"inet.linklayer.ppp.Ppp\""
par NSA_TwoGnbs.router.ppp[0].ppp interfaceTableModule "\"NSA_TwoGnbs.router.interfaceTable\""
par NSA_TwoGnbs.router.ppp[0].ppp displayStringTextFormat "\"rate: %b\\nsent: %s, rcvd: %r\\nqueue: %q, drop: %d\""
par NSA_TwoGnbs.router.ppp[0].ppp sendRawBytes false
par NSA_TwoGnbs.router.ppp[0].ppp mtu 4470B
attr unit B
par NSA_TwoGnbs.router.ppp[0].ppp stopOperationExtraTime -1s
attr unit s
par NSA_TwoGnbs.router.ppp[0].ppp stopOperationTimeout 2s
attr unit s
par NSA_TwoGnbs.router.ppp[0] typename "\"inet.linklayer.ppp.PppInterface\""
par NSA_TwoGnbs.router.ppp[0] displayStringTextFormat "\"%a (%i)\\n%m\""
par NSA_TwoGnbs.router.ppp[0] recordPcap false
par NSA_TwoGnbs.router.ppp[0] numPcapRecorders 0
par NSA_TwoGnbs.router.ppp[0] interfaceTableModule "\"NSA_TwoGnbs.router.interfaceTable\""
par NSA_TwoGnbs.router.ppp[1].phys$i.channel typename "\"ned.IdealChannel\""
par NSA_TwoGnbs.router.ppp[1].ppp.phys$o.channel typename "\"ned.IdealChannel\""
par NSA_TwoGnbs.router.ppp[1].ppp.upperLayerOut.channel typename "\"ned.IdealChannel\""
par NSA_TwoGnbs.router.ppp[1].upperLayerIn.channel typename "\"ned.IdealChannel\""
par NSA_TwoGnbs.router.ppp[1].queue typename "\"inet.queueing.queue.DropTailQueue\""
par NSA_TwoGnbs.router.ppp[1].queue displayStringTextFormat "\"contains %p pk (%l) pushed %u\\npulled %o removed %r dropped %d\""
par NSA_TwoGnbs.router.ppp[1].queue packetCapacity 10000
par NSA_TwoGnbs.router.ppp[1].queue dataCapacity -1b
attr unit b
par NSA_TwoGnbs.router.ppp[1].queue dropperClass "\"inet::queueing::PacketAtCollectionEndDropper\""
par NSA_TwoGnbs.router.ppp[1].queue comparatorClass "\"\""
par NSA_TwoGnbs.router.ppp[1].queue bufferModule "\"\""
par NSA_TwoGnbs.router.ppp[1].ppp typename "\"inet.linklayer.ppp.Ppp\""
par NSA_TwoGnbs.router.ppp[1].ppp interfaceTableModule "\"NSA_TwoGnbs.router.interfaceTable\""
par NSA_TwoGnbs.router.ppp[1].ppp displayStringTextFormat "\"rate: %b\\nsent: %s, rcvd: %r\\nqueue: %q, drop: %d\""
par NSA_TwoGnbs.router.ppp[1].ppp sendRawBytes false
par NSA_TwoGnbs.router.ppp[1].ppp mtu 4470B
attr unit B
par NSA_TwoGnbs.router.ppp[1].ppp stopOperationExtraTime -1s
attr unit s
par NSA_TwoGnbs.router.ppp[1].ppp stopOperationTimeout 2s
attr unit s
par NSA_TwoGnbs.router.ppp[1] typename "\"inet.linklayer.ppp.PppInterface\""
par NSA_TwoGnbs.router.ppp[1] displayStringTextFormat "\"%a (%i)\\n%m\""
par NSA_TwoGnbs.router.ppp[1] recordPcap false
par NSA_TwoGnbs.router.ppp[1] numPcapRecorders 0
par NSA_TwoGnbs.router.ppp[1] interfaceTableModule "\"NSA_TwoGnbs.router.interfaceTable\""
par NSA_TwoGnbs.router.ipv4.transportIn.channel typename "\"ned.IdealChannel\""
par NSA_TwoGnbs.router.ipv4.up.out[0].channel typename "\"ned.IdealChannel\""
par NSA_TwoGnbs.router.ipv4.lp.out[2].channel typename "\"ned.IdealChannel\""
par NSA_TwoGnbs.router.ipv4.ifIn.channel typename "\"ned.IdealChannel\""
par NSA_TwoGnbs.router.ipv4.configurator typename "\"inet.networklayer.configurator.ipv4.Ipv4NodeConfigurator\""
par NSA_TwoGnbs.router.ipv4.configurator interfaceTableModule "\"NSA_TwoGnbs.router.interfaceTable\""
par NSA_TwoGnbs.router.ipv4.configurator routingTableModule "\"NSA_TwoGnbs.router.ipv4.routingTable\""
par NSA_TwoGnbs.router.ipv4.configurator networkConfiguratorModule "\"configurator\""
par NSA_TwoGnbs.router.ipv4.configurator configureRoutingTable true
par NSA_TwoGnbs.router.ipv4.routingTable typename "\"inet.networklayer.ipv4.Ipv4RoutingTable\""
par NSA_TwoGnbs.router.ipv4.routingTable interfaceTableModule "\"NSA_TwoGnbs.router.interfaceTable\""
par NSA_TwoGnbs.router.ipv4.routingTable routerId "\"auto\""
par NSA_TwoGnbs.router.ipv4.routingTable netmaskRoutes "\"*\""
par NSA_TwoGnbs.router.ipv4.routingTable forwarding true
par NSA_TwoGnbs.router.ipv4.routingTable multicastForwarding false
par NSA_TwoGnbs.router.ipv4.routingTable useAdminDist false
par NSA_TwoGnbs.router.ipv4.routingTable routingFile "\"\""
par NSA_TwoGnbs.router.ipv4.natTable typename "\"inet.networklayer.ipv4.Ipv4NatTable\""
par NSA_TwoGnbs.router.ipv4.natTable networkProtocolModule "\"^.ip\""
par NSA_TwoGnbs.router.ipv4.natTable config "<config/> at content:1"
par NSA_TwoGnbs.router.ipv4.up typename "\"inet.common.MessageDispatcher\""
par NSA_TwoGnbs.router.ipv4.up displayStringTextFormat "\"processed %p pk (%l)\""
par NSA_TwoGnbs.router.ipv4.up forwardServiceRegistration true
par NSA_TwoGnbs.router.ipv4.up forwardProtocolRegistration true
par NSA_TwoGnbs.router.ipv4.igmp typename "\"inet.networklayer.ipv4.Igmpv2\""
par NSA_TwoGnbs.router.ipv4.igmp interfaceTableModule "\"NSA_TwoGnbs.router.interfaceTable\""
par NSA_TwoGnbs.router.ipv4.igmp routingTableModule "\"NSA_TwoGnbs.router.ipv4.routingTable\""
par NSA_TwoGnbs.router.ipv4.igmp crcMode "\"declared\""
attr enum declared,computed
par NSA_TwoGnbs.router.ipv4.igmp enabled true
par NSA_TwoGnbs.router.ipv4.igmp robustnessVariable 2
par NSA_TwoGnbs.router.ipv4.igmp queryInterval 125s
attr unit s
par NSA_TwoGnbs.router.ipv4.igmp queryResponseInterval 10s
attr unit s
par NSA_TwoGnbs.router.ipv4.igmp groupMembershipInterval 260s
attr unit s
par NSA_TwoGnbs.router.ipv4.igmp otherQuerierPresentInterval 255s
attr unit s
par NSA_TwoGnbs.router.ipv4.igmp startupQueryInterval 31.25s
attr unit s
par NSA_TwoGnbs.router.ipv4.igmp startupQueryCount 2
par NSA_TwoGnbs.router.ipv4.igmp lastMemberQueryInterval 1s
attr unit s
par NSA_TwoGnbs.router.ipv4.igmp lastMemberQueryCount 2
par NSA_TwoGnbs.router.ipv4.igmp unsolicitedReportInterval 10s
attr unit s
par NSA_TwoGnbs.router.ipv4.icmp typename "\"inet.networklayer.ipv4.Icmp\""
par NSA_TwoGnbs.router.ipv4.icmp interfaceTableModule "\"NSA_TwoGnbs.router.interfaceTable\""
par NSA_TwoGnbs.router.ipv4.icmp routingTableModule "\"NSA_TwoGnbs.router.ipv4.routingTable\""
par NSA_TwoGnbs.router.ipv4.icmp crcMode "\"declared\""
attr enum declared,computed
attr mutable ""
par NSA_TwoGnbs.router.ipv4.icmp quoteLength 8B
attr mutable ""
attr unit B
par NSA_TwoGnbs.router.ipv4.mp typename "\"inet.common.MessageDispatcher\""
par NSA_TwoGnbs.router.ipv4.mp displayStringTextFormat "\"processed %p pk (%l)\""
par NSA_TwoGnbs.router.ipv4.mp forwardServiceRegistration true
par NSA_TwoGnbs.router.ipv4.mp forwardProtocolRegistration true
par NSA_TwoGnbs.router.ipv4.ip typename "\"inet.networklayer.ipv4.Ipv4\""
par NSA_TwoGnbs.router.ipv4.ip interfaceTableModule "\"NSA_TwoGnbs.router.interfaceTable\""
par NSA_TwoGnbs.router.ipv4.ip routingTableModule "\"NSA_TwoGnbs.router.ipv4.routingTable\""
par NSA_TwoGnbs.router.ipv4.ip arpModule "\"NSA_TwoGnbs.router.ipv4.arp\""
par NSA_TwoGnbs.router.ipv4.ip icmpModule "\"NSA_TwoGnbs.router.ipv4.icmp\""
par NSA_TwoGnbs.router.ipv4.ip crcMode "\"declared\""
attr enum declared,computed
par NSA_TwoGnbs.router.ipv4.ip timeToLive 32
par NSA_TwoGnbs.router.ipv4.ip multicastTimeToLive 32
par NSA_TwoGnbs.router.ipv4.ip fragmentTimeout 60s
attr unit s
par NSA_TwoGnbs.router.ipv4.ip limitedBroadcast false
par NSA_TwoGnbs.router.ipv4.ip directBroadcastInterfaces "\"\""
par NSA_TwoGnbs.router.ipv4.arp typename "\"inet.networklayer.arp.ipv4.Arp\""
par NSA_TwoGnbs.router.ipv4.arp interfaceTableModule "\"NSA_TwoGnbs.router.interfaceTable\""
par NSA_TwoGnbs.router.ipv4.arp routingTableModule "\"NSA_TwoGnbs.router.ipv4.routingTable\""
par NSA_TwoGnbs.router.ipv4.arp retryTimeout 1s
attr unit s
par NSA_TwoGnbs.router.ipv4.arp retryCount 3
par NSA_TwoGnbs.router.ipv4.arp cacheTimeout 120s
attr unit s
par NSA_TwoGnbs.router.ipv4.arp proxyArpInterfaces "\"*\""
par NSA_TwoGnbs.router.ipv4.lp typename "\"inet.common.MessageDispatcher\""
par NSA_TwoGnbs.router.ipv4.lp displayStringTextFormat "\"processed %p pk (%l)\""
par NSA_TwoGnbs.router.ipv4.lp forwardServiceRegistration true
par NSA_TwoGnbs.router.ipv4.lp forwardProtocolRegistration true
par NSA_TwoGnbs.router.ipv4 typename "\"inet.networklayer.ipv4.Ipv4NetworkLayer\""
par NSA_TwoGnbs.router.ipv4 forwarding true
par NSA_TwoGnbs.router.ipv4 multicastForwarding false
par NSA_TwoGnbs.router.ipv4 interfaceTableModule "\"NSA_TwoGnbs.router.interfaceTable\""
par NSA_TwoGnbs.router.ipv4 displayStringTextFormat "\"%i\""
par NSA_TwoGnbs.router.nl typename "\"inet.common.MessageDispatcher\""
par NSA_TwoGnbs.router.nl displayStringTextFormat "\"processed %p pk (%l)\""
par NSA_TwoGnbs.router.nl forwardServiceRegistration true
par NSA_TwoGnbs.router.nl forwardProtocolRegistration true
par NSA_TwoGnbs.router.tn typename "\"inet.common.MessageDispatcher\""
par NSA_TwoGnbs.router.tn displayStringTextFormat "\"processed %p pk (%l)\""
par NSA_TwoGnbs.router.tn forwardServiceRegistration true
par NSA_TwoGnbs.router.tn forwardProtocolRegistration true
par NSA_TwoGnbs.router.at typename "\"inet.common.MessageDispatcher\""
par NSA_TwoGnbs.router.at displayStringTextFormat "\"processed %p pk (%l)\""
par NSA_TwoGnbs.router.at forwardServiceRegistration true
par NSA_TwoGnbs.router.at forwardProtocolRegistration true
par NSA_TwoGnbs.router typename "\"inet.node.inet.Router\""
par NSA_TwoGnbs.router hasStatus false
par NSA_TwoGnbs.router osgModel "\"\""
par NSA_TwoGnbs.router osgModelColor "\"\""
par NSA_TwoGnbs.router canvasImage "\"\""
par NSA_TwoGnbs.router canvasImageColor "\"\""
par NSA_TwoGnbs.router recordPcap false
par NSA_TwoGnbs.router numPcapRecorders 0
par NSA_TwoGnbs.router numLoInterfaces 1
par NSA_TwoGnbs.router numWlanInterfaces 0
par NSA_TwoGnbs.router numEthInterfaces 0
par NSA_TwoGnbs.router numPppInterfaces 0
par NSA_TwoGnbs.router numTunInterfaces 0
par NSA_TwoGnbs.router numVirtInterfaces 0
par NSA_TwoGnbs.router fcsMode "\"declared\""
attr enum declared,computed
par NSA_TwoGnbs.router hasIpv4 true
par NSA_TwoGnbs.router hasIpv6 false
par NSA_TwoGnbs.router hasGn false
par NSA_TwoGnbs.router forwarding true
par NSA_TwoGnbs.router multicastForwarding false
par NSA_TwoGnbs.router hasUdp false
par NSA_TwoGnbs.router hasTcp false
par NSA_TwoGnbs.router hasSctp false
par NSA_TwoGnbs.router numApps 0
par NSA_TwoGnbs.router hasEigrp false
par NSA_TwoGnbs.router hasOspf false
par NSA_TwoGnbs.router hasRip false
par NSA_TwoGnbs.router hasBgp false
par NSA_TwoGnbs.router hasPim false
par NSA_TwoGnbs.router hasDhcp false
par NSA_TwoGnbs.pgw.pppg$i[0].channel typename "\"ned.IdealChannel\""
par NSA_TwoGnbs.pgw.ppp[0].phys$o.channel typename "\"ned.IdealChannel\""
par NSA_TwoGnbs.pgw.interfaceTable typename "\"inet.networklayer.common.InterfaceTable\""
par NSA_TwoGnbs.pgw.interfaceTable displayAddresses false
par NSA_TwoGnbs.pgw.cb typename "\"inet.common.MessageDispatcher\""
par NSA_TwoGnbs.pgw.cb displayStringTextFormat "\"processed %p pk (%l)\""
par NSA_TwoGnbs.pgw.cb forwardServiceRegistration true
par NSA_TwoGnbs.pgw.cb forwardProtocolRegistration true
par NSA_TwoGnbs.pgw.bl typename "\"inet.common.MessageDispatcher\""
par NSA_TwoGnbs.pgw.bl displayStringTextFormat "\"processed %p pk (%l)\""
par NSA_TwoGnbs.pgw.bl forwardServiceRegistration true
par NSA_TwoGnbs.pgw.bl forwardProtocolRegistration true
par NSA_TwoGnbs.pgw.li typename "\"inet.common.MessageDispatcher\""
par NSA_TwoGnbs.pgw.li displayStringTextFormat "\"processed %p pk (%l)\""
par NSA_TwoGnbs.pgw.li forwardServiceRegistration true
par NSA_TwoGnbs.pgw.li forwardProtocolRegistration true
par NSA_TwoGnbs.pgw.lo[0].upperLayerIn.channel typename "\"ned.IdealChannel\""
par NSA_TwoGnbs.pgw.lo[0].lo.upperLayerOut.channel typename "\"ned.IdealChannel\""
par NSA_TwoGnbs.pgw.lo[0].lo typename "\"inet.linklayer.loopback.Loopback\""
par NSA_TwoGnbs.pgw.lo[0].lo interfaceTableModule "\"NSA_TwoGnbs.pgw.interfaceTable\""
par NSA_TwoGnbs.pgw.lo[0].lo mtu 4470B
attr unit B
par NSA_TwoGnbs.pgw.lo[0] typename "\"inet.linklayer.loopback.LoopbackInterface\""
par NSA_TwoGnbs.pgw.lo[0] displayStringTextFormat "\"%a (%i)\\n%m\""
par NSA_TwoGnbs.pgw.lo[0] recordPcap false
par NSA_TwoGnbs.pgw.lo[0] numPcapRecorders 0
par NSA_TwoGnbs.pgw.lo[0] interfaceTableModule "\"NSA_TwoGnbs.pgw.interfaceTable\""
par NSA_TwoGnbs.pgw.ppp[0].phys$i.channel typename "\"ned.IdealChannel\""
par NSA_TwoGnbs.pgw.ppp[0].ppp.phys$o.channel typename "\"ned.IdealChannel\""
par NSA_TwoGnbs.pgw.ppp[0].ppp.upperLayerOut.channel typename "\"ned.IdealChannel\""
par NSA_TwoGnbs.pgw.ppp[0].upperLayerIn.channel typename "\"ned.IdealChannel\""
par NSA_TwoGnbs.pgw.ppp[0].queue typename "\"inet.queueing.queue.DropTailQueue\""
par NSA_TwoGnbs.pgw.ppp[0].queue displayStringTextFormat "\"contains %p pk (%l) pushed %u\\npulled %o removed %r dropped %d\""
par NSA_TwoGnbs.pgw.ppp[0].queue packetCapacity 10000
par NSA_TwoGnbs.pgw.ppp[0].queue dataCapacity -1b
attr unit b
par NSA_TwoGnbs.pgw.ppp[0].queue dropperClass "\"inet::queueing::PacketAtCollectionEndDropper\""
par NSA_TwoGnbs.pgw.ppp[0].queue comparatorClass "\"\""
par NSA_TwoGnbs.pgw.ppp[0].queue bufferModule "\"\""
par NSA_TwoGnbs.pgw.ppp[0].ppp typename "\"inet.linklayer.ppp.Ppp\""
par NSA_TwoGnbs.pgw.ppp[0].ppp interfaceTableModule "\"NSA_TwoGnbs.pgw.interfaceTable\""
par NSA_TwoGnbs.pgw.ppp[0].ppp displayStringTextFormat "\"rate: %b\\nsent: %s, rcvd: %r\\nqueue: %q, drop: %d\""
par NSA_TwoGnbs.pgw.ppp[0].ppp sendRawBytes false
par NSA_TwoGnbs.pgw.ppp[0].ppp mtu 4470B
attr unit B
par NSA_TwoGnbs.pgw.ppp[0].ppp stopOperationExtraTime -1s
attr unit s
par NSA_TwoGnbs.pgw.ppp[0].ppp stopOperationTimeout 2s
attr unit s
par NSA_TwoGnbs.pgw.ppp[0] typename "\"inet.linklayer.ppp.PppInterface\""
par NSA_TwoGnbs.pgw.ppp[0] displayStringTextFormat "\"%a (%i)\\n%m\""
par NSA_TwoGnbs.pgw.ppp[0] recordPcap false
par NSA_TwoGnbs.pgw.ppp[0] numPcapRecorders 0
par NSA_TwoGnbs.pgw.ppp[0] interfaceTableModule "\"NSA_TwoGnbs.pgw.interfaceTable\""
par NSA_TwoGnbs.pgw.ipv4.transportIn.channel typename "\"ned.IdealChannel\""
par NSA_TwoGnbs.pgw.ipv4.up.out[0].channel typename "\"ned.IdealChannel\""
par NSA_TwoGnbs.pgw.ipv4.lp.out[2].channel typename "\"ned.IdealChannel\""
par NSA_TwoGnbs.pgw.ipv4.ifIn.channel typename "\"ned.IdealChannel\""
par NSA_TwoGnbs.pgw.ipv4.configurator typename "\"inet.networklayer.configurator.ipv4.Ipv4NodeConfigurator\""
par NSA_TwoGnbs.pgw.ipv4.configurator interfaceTableModule "\"NSA_TwoGnbs.pgw.interfaceTable\""
par NSA_TwoGnbs.pgw.ipv4.configurator routingTableModule "\"NSA_TwoGnbs.pgw.ipv4.routingTable\""
par NSA_TwoGnbs.pgw.ipv4.configurator networkConfiguratorModule "\"configurator\""
par NSA_TwoGnbs.pgw.ipv4.configurator configureRoutingTable true
par NSA_TwoGnbs.pgw.ipv4.routingTable typename "\"inet.networklayer.ipv4.Ipv4RoutingTable\""
par NSA_TwoGnbs.pgw.ipv4.routingTable interfaceTableModule "\"NSA_TwoGnbs.pgw.interfaceTable\""
par NSA_TwoGnbs.pgw.ipv4.routingTable routerId "\"auto\""
par NSA_TwoGnbs.pgw.ipv4.routingTable netmaskRoutes "\"*\""
par NSA_TwoGnbs.pgw.ipv4.routingTable forwarding true
par NSA_TwoGnbs.pgw.ipv4.routingTable multicastForwarding false
par NSA_TwoGnbs.pgw.ipv4.routingTable useAdminDist false
par NSA_TwoGnbs.pgw.ipv4.routingTable routingFile "\"\""
par NSA_TwoGnbs.pgw.ipv4.natTable typename "\"inet.networklayer.ipv4.Ipv4NatTable\""
par NSA_TwoGnbs.pgw.ipv4.natTable networkProtocolModule "\"^.ip\""
par NSA_TwoGnbs.pgw.ipv4.natTable config "<config/> at content:1"
par NSA_TwoGnbs.pgw.ipv4.up typename "\"inet.common.MessageDispatcher\""
par NSA_TwoGnbs.pgw.ipv4.up displayStringTextFormat "\"processed %p pk (%l)\""
par NSA_TwoGnbs.pgw.ipv4.up forwardServiceRegistration true
par NSA_TwoGnbs.pgw.ipv4.up forwardProtocolRegistration true
par NSA_TwoGnbs.pgw.ipv4.igmp typename "\"inet.networklayer.ipv4.Igmpv2\""
par NSA_TwoGnbs.pgw.ipv4.igmp interfaceTableModule "\"NSA_TwoGnbs.pgw.interfaceTable\""
par NSA_TwoGnbs.pgw.ipv4.igmp routingTableModule "\"NSA_TwoGnbs.pgw.ipv4.routingTable\""
par NSA_TwoGnbs.pgw.ipv4.igmp crcMode "\"declared\""
attr enum declared,computed
par NSA_TwoGnbs.pgw.ipv4.igmp enabled true
par NSA_TwoGnbs.pgw.ipv4.igmp robustnessVariable 2
par NSA_TwoGnbs.pgw.ipv4.igmp queryInterval 125s
attr unit s
par NSA_TwoGnbs.pgw.ipv4.igmp queryResponseInterval 10s
attr unit s
par NSA_TwoGnbs.pgw.ipv4.igmp groupMembershipInterval 260s
attr unit s
par NSA_TwoGnbs.pgw.ipv4.igmp otherQuerierPresentInterval 255s
attr unit s
par NSA_TwoGnbs.pgw.ipv4.igmp startupQueryInterval 31.25s
attr unit s
par NSA_TwoGnbs.pgw.ipv4.igmp startupQueryCount 2
par NSA_TwoGnbs.pgw.ipv4.igmp lastMemberQueryInterval 1s
attr unit s
par NSA_TwoGnbs.pgw.ipv4.igmp lastMemberQueryCount 2
par NSA_TwoGnbs.pgw.ipv4.igmp unsolicitedReportInterval 10s
attr unit s
par NSA_TwoGnbs.pgw.ipv4.icmp typename "\"inet.networklayer.ipv4.Icmp\""
par NSA_TwoGnbs.pgw.ipv4.icmp interfaceTableModule "\"NSA_TwoGnbs.pgw.interfaceTable\""
par NSA_TwoGnbs.pgw.ipv4.icmp routingTableModule "\"NSA_TwoGnbs.pgw.ipv4.routingTable\""
par NSA_TwoGnbs.pgw.ipv4.icmp crcMode "\"declared\""
attr enum declared,computed
attr mutable ""
par NSA_TwoGnbs.pgw.ipv4.icmp quoteLength 8B
attr mutable ""
attr unit B
par NSA_TwoGnbs.pgw.ipv4.mp typename "\"inet.common.MessageDispatcher\""
par NSA_TwoGnbs.pgw.ipv4.mp displayStringTextFormat "\"processed %p pk (%l)\""
par NSA_TwoGnbs.pgw.ipv4.mp forwardServiceRegistration true
par NSA_TwoGnbs.pgw.ipv4.mp forwardProtocolRegistration true
par NSA_TwoGnbs.pgw.ipv4.ip typename "\"inet.networklayer.ipv4.Ipv4\""
par NSA_TwoGnbs.pgw.ipv4.ip interfaceTableModule "\"NSA_TwoGnbs.pgw.interfaceTable\""
par NSA_TwoGnbs.pgw.ipv4.ip routingTableModule "\"NSA_TwoGnbs.pgw.ipv4.routingTable\""
par NSA_TwoGnbs.pgw.ipv4.ip arpModule "\"NSA_TwoGnbs.pgw.ipv4.arp\""
par NSA_TwoGnbs.pgw.ipv4.ip icmpModule "\"NSA_TwoGnbs.pgw.ipv4.icmp\""
par NSA_TwoGnbs.pgw.ipv4.ip crcMode "\"declared\""
attr enum declared,computed
par NSA_TwoGnbs.pgw.ipv4.ip timeToLive 32
par NSA_TwoGnbs.pgw.ipv4.ip multicastTimeToLive 32
par NSA_TwoGnbs.pgw.ipv4.ip fragmentTimeout 60s
attr unit s
par NSA_TwoGnbs.pgw.ipv4.ip limitedBroadcast false
par NSA_TwoGnbs.pgw.ipv4.ip directBroadcastInterfaces "\"\""
par NSA_TwoGnbs.pgw.ipv4.arp typename "\"inet.networklayer.arp.ipv4.Arp\""
par NSA_TwoGnbs.pgw.ipv4.arp interfaceTableModule "\"NSA_TwoGnbs.pgw.interfaceTable\""
par NSA_TwoGnbs.pgw.ipv4.arp routingTableModule "\"NSA_TwoGnbs.pgw.ipv4.routingTable\""
par NSA_TwoGnbs.pgw.ipv4.arp retryTimeout 1s
attr unit s
par NSA_TwoGnbs.pgw.ipv4.arp retryCount 3
par NSA_TwoGnbs.pgw.ipv4.arp cacheTimeout 120s
attr unit s
par NSA_TwoGnbs.pgw.ipv4.arp proxyArpInterfaces "\"*\""
par NSA_TwoGnbs.pgw.ipv4.lp typename "\"inet.common.MessageDispatcher\""
par NSA_TwoGnbs.pgw.ipv4.lp displayStringTextFormat "\"processed %p pk (%l)\""
par NSA_TwoGnbs.pgw.ipv4.lp forwardServiceRegistration true
par NSA_TwoGnbs.pgw.ipv4.lp forwardProtocolRegistration true
par NSA_TwoGnbs.pgw.ipv4 typename "\"inet.networklayer.ipv4.Ipv4NetworkLayer\""
par NSA_TwoGnbs.pgw.ipv4 forwarding true
par NSA_TwoGnbs.pgw.ipv4 multicastForwarding false
par NSA_TwoGnbs.pgw.ipv4 interfaceTableModule "\"NSA_TwoGnbs.pgw.interfaceTable\""
par NSA_TwoGnbs.pgw.ipv4 displayStringTextFormat "\"%i\""
par NSA_TwoGnbs.pgw.nl typename "\"inet.common.MessageDispatcher\""
par NSA_TwoGnbs.pgw.nl displayStringTextFormat "\"processed %p pk (%l)\""
par NSA_TwoGnbs.pgw.nl forwardServiceRegistration true
par NSA_TwoGnbs.pgw.nl forwardProtocolRegistration true
par NSA_TwoGnbs.pgw.pppIf.phys$i.channel typename "\"ned.IdealChannel\""
par NSA_TwoGnbs.pgw.pppIf.ppp.phys$o.channel typename "\"ned.IdealChannel\""
par NSA_TwoGnbs.pgw.pppIf.ppp.upperLayerOut.channel typename "\"ned.IdealChannel\""
par NSA_TwoGnbs.pgw.pppIf.upperLayerIn.channel typename "\"ned.IdealChannel\""
par NSA_TwoGnbs.pgw.pppIf.queue typename "\"inet.queueing.queue.DropTailQueue\""
par NSA_TwoGnbs.pgw.pppIf.queue displayStringTextFormat "\"contains %p pk (%l) pushed %u\\npulled %o removed %r dropped %d\""
par NSA_TwoGnbs.pgw.pppIf.queue packetCapacity 10000
par NSA_TwoGnbs.pgw.pppIf.queue dataCapacity -1b
attr unit b
par NSA_TwoGnbs.pgw.pppIf.queue dropperClass "\"inet::queueing::PacketAtCollectionEndDropper\""
par NSA_TwoGnbs.pgw.pppIf.queue comparatorClass "\"\""
par NSA_TwoGnbs.pgw.pppIf.queue bufferModule "\"\""
par NSA_TwoGnbs.pgw.pppIf.ppp typename "\"inet.linklayer.ppp.Ppp\""
par NSA_TwoGnbs.pgw.pppIf.ppp interfaceTableModule "\"NSA_TwoGnbs.pgw.interfaceTable\""
par NSA_TwoGnbs.pgw.pppIf.ppp displayStringTextFormat "\"rate: %b\\nsent: %s, rcvd: %r\\nqueue: %q, drop: %d\""
par NSA_TwoGnbs.pgw.pppIf.ppp sendRawBytes false
par NSA_TwoGnbs.pgw.pppIf.ppp mtu 4470B
attr unit B
par NSA_TwoGnbs.pgw.pppIf.ppp stopOperationExtraTime -1s
attr unit s
par NSA_TwoGnbs.pgw.pppIf.ppp stopOperationTimeout 2s
attr unit s
par NSA_TwoGnbs.pgw.pppIf typename "\"inet.linklayer.ppp.PppInterface\""
par NSA_TwoGnbs.pgw.pppIf displayStringTextFormat "\"%a (%i)\\n%m\""
par NSA_TwoGnbs.pgw.pppIf recordPcap false
par NSA_TwoGnbs.pgw.pppIf numPcapRecorders 0
par NSA_TwoGnbs.pgw.pppIf interfaceTableModule "\"NSA_TwoGnbs.pgw.interfaceTable\""
par NSA_TwoGnbs.pgw.udp typename "\"inet.transportlayer.udp.Udp\""
par NSA_TwoGnbs.pgw.udp interfaceTableModule "\"NSA_TwoGnbs.pgw.interfaceTable\""
par NSA_TwoGnbs.pgw.udp icmpModule "\"^.ipv4.icmp\""
par NSA_TwoGnbs.pgw.udp icmpv6Module "\"^.ipv6.icmpv6\""
par NSA_TwoGnbs.pgw.udp crcMode "\"declared\""
attr enum disabled,declared,computed
par NSA_TwoGnbs.pgw.udp defaultMulticastLoop true
par NSA_TwoGnbs.pgw.trafficFlowFilter typename "\"simu5g.corenetwork.trafficFlowFilter.TrafficFlowFilter\""
par NSA_TwoGnbs.pgw.trafficFlowFilter ownerType "\"PGW\""
par NSA_TwoGnbs.pgw.trafficFlowFilter fastForwarding true
par NSA_TwoGnbs.pgw.gtp_user typename "\"simu5g.corenetwork.gtp.GtpUser\""
par NSA_TwoGnbs.pgw.gtp_user interfaceTableModule "\"NSA_TwoGnbs.pgw.interfaceTable\""
par NSA_TwoGnbs.pgw.gtp_user ipOutInterface "\"\""
par NSA_TwoGnbs.pgw.gtp_user localPort 31
par NSA_TwoGnbs.pgw.gtp_user tunnelPeerPort 31
par NSA_TwoGnbs.pgw.gtp_user filter true
par NSA_TwoGnbs.pgw.tn typename "\"inet.common.MessageDispatcher\""
par NSA_TwoGnbs.pgw.tn displayStringTextFormat "\"processed %p pk (%l)\""
par NSA_TwoGnbs.pgw.tn forwardServiceRegistration true
par NSA_TwoGnbs.pgw.tn forwardProtocolRegistration true
par NSA_TwoGnbs.pgw.at typename "\"inet.common.MessageDispatcher\""
par NSA_TwoGnbs.pgw.at displayStringTextFormat "\"processed %p pk (%l)\""
par NSA_TwoGnbs.pgw.at forwardServiceRegistration true
par NSA_TwoGnbs.pgw.at forwardProtocolRegistration true
par NSA_TwoGnbs.pgw typename "\"simu5g.nodes.PgwStandard\""
par NSA_TwoGnbs.pgw hasStatus false
par NSA_TwoGnbs.pgw osgModel "\"\""
par NSA_TwoGnbs.pgw osgModelColor "\"\""
par NSA_TwoGnbs.pgw canvasImage "\"\""
par NSA_TwoGnbs.pgw canvasImageColor "\"\""
par NSA_TwoGnbs.pgw recordPcap false
par NSA_TwoGnbs.pgw numPcapRecorders 0
par NSA_TwoGnbs.pgw numLoInterfaces 1
par NSA_TwoGnbs.pgw numWlanInterfaces 0
par NSA_TwoGnbs.pgw numEthInterfaces 0
par NSA_TwoGnbs.pgw numPppInterfaces 0
par NSA_TwoGnbs.pgw numTunInterfaces 0
par NSA_TwoGnbs.pgw numVirtInterfaces 0
par NSA_TwoGnbs.pgw fcsMode "\"declared\""
attr enum declared,computed
par NSA_TwoGnbs.pgw hasIpv4 true
par NSA_TwoGnbs.pgw hasIpv6 false
par NSA_TwoGnbs.pgw hasGn false
par NSA_TwoGnbs.pgw forwarding true
par NSA_TwoGnbs.pgw multicastForwarding false
par NSA_TwoGnbs.pgw nodeType "\"PGW\""
par NSA_TwoGnbs.masterEnb.interfaceTable typename "\"inet.networklayer.common.InterfaceTable\""
par NSA_TwoGnbs.masterEnb.interfaceTable displayAddresses false
par NSA_TwoGnbs.masterEnb.mobility typename "\"inet.mobility.static.StationaryMobility\""
par NSA_TwoGnbs.masterEnb.mobility subjectModule "\"^\""
par NSA_TwoGnbs.masterEnb.mobility coordinateSystemModule "\"\""
par NSA_TwoGnbs.masterEnb.mobility displayStringTextFormat "\"p: %p\\nv: %v\""
attr mutable ""
par NSA_TwoGnbs.masterEnb.mobility updateDisplayString true
par NSA_TwoGnbs.masterEnb.mobility constraintAreaMinX 0m
attr unit m
par NSA_TwoGnbs.masterEnb.mobility constraintAreaMinY 0m
attr unit m
par NSA_TwoGnbs.masterEnb.mobility constraintAreaMinZ 0m
attr unit m
par NSA_TwoGnbs.masterEnb.mobility constraintAreaMaxX 1000m
attr unit m
par NSA_TwoGnbs.masterEnb.mobility constraintAreaMaxY 600m
attr unit m
par NSA_TwoGnbs.masterEnb.mobility constraintAreaMaxZ 0m
attr unit m
par NSA_TwoGnbs.masterEnb.mobility initialX 525m
attr unit m
par NSA_TwoGnbs.masterEnb.mobility initialY 243m
attr unit m
par NSA_TwoGnbs.masterEnb.mobility initialZ 0m
attr unit m
par NSA_TwoGnbs.masterEnb.mobility initialLatitude "nan deg"
attr unit deg
par NSA_TwoGnbs.masterEnb.mobility initialLongitude "nan deg"
attr unit deg
par NSA_TwoGnbs.masterEnb.mobility initialAltitude 0m
attr unit m
par NSA_TwoGnbs.masterEnb.mobility initialHeading 0deg
attr unit deg
par NSA_TwoGnbs.masterEnb.mobility initialElevation 0deg
attr unit deg
par NSA_TwoGnbs.masterEnb.mobility initialBank 0deg
attr unit deg
par NSA_TwoGnbs.masterEnb.mobility initFromDisplayString false
par NSA_TwoGnbs.masterEnb.mobility updateFromDisplayString true
par NSA_TwoGnbs.masterEnb.cellInfo typename "\"simu5g.common.cellInfo.CellInfo\""
par NSA_TwoGnbs.masterEnb.cellInfo constraintAreaMinX "-inf m"
attr unit m
par NSA_TwoGnbs.masterEnb.cellInfo constraintAreaMinY "-inf m"
attr unit m
par NSA_TwoGnbs.masterEnb.cellInfo constraintAreaMaxX "inf m"
attr unit m
par NSA_TwoGnbs.masterEnb.cellInfo constraintAreaMaxY "inf m"
attr unit m
par NSA_TwoGnbs.masterEnb.cellInfo speed 0mps
attr unit mps
par NSA_TwoGnbs.masterEnb.cellInfo positionUpdateInterval 0.001s
attr unit s
par NSA_TwoGnbs.masterEnb.cellInfo broadcastMessageInterval 1s
attr unit s
par NSA_TwoGnbs.masterEnb.cellInfo microCell false
par NSA_TwoGnbs.masterEnb.cellInfo numRus 0
par NSA_TwoGnbs.masterEnb.cellInfo ruRange 0
par NSA_TwoGnbs.masterEnb.cellInfo ruStartingAngle 0deg
attr unit deg
par NSA_TwoGnbs.masterEnb.cellInfo ruTxPower "\"0;\""
par NSA_TwoGnbs.masterEnb.cellInfo antennaCws "\"1;\""
par NSA_TwoGnbs.masterEnb.cellInfo rbyDl 12
par NSA_TwoGnbs.masterEnb.cellInfo rbyUl 12
par NSA_TwoGnbs.masterEnb.cellInfo rbxDl 7
par NSA_TwoGnbs.masterEnb.cellInfo rbxUl 7
par NSA_TwoGnbs.masterEnb.cellInfo rbPilotDl 3
par NSA_TwoGnbs.masterEnb.cellInfo rbPilotUl 0
par NSA_TwoGnbs.masterEnb.cellInfo signalDl 1
par NSA_TwoGnbs.masterEnb.cellInfo signalUl 1
par NSA_TwoGnbs.masterEnb.cellInfo numPreferredBands 1
par NSA_TwoGnbs.masterEnb.cellularNic.ip2nic.upperLayerOut.channel typename "\"ned.DelayChannel\""
par NSA_TwoGnbs.masterEnb.cellularNic.ip2nic.upperLayerOut.channel disabled false
attr mutable ""
par NSA_TwoGnbs.masterEnb.cellularNic.ip2nic.upperLayerOut.channel delay 0s
attr mutable ""
attr unit s
par NSA_TwoGnbs.masterEnb.cellularNic.upperLayerIn.channel typename "\"ned.DelayChannel\""
par NSA_TwoGnbs.masterEnb.cellularNic.upperLayerIn.channel disabled false
attr mutable ""
par NSA_TwoGnbs.masterEnb.cellularNic.upperLayerIn.channel delay 0s
attr mutable ""
attr unit s
par NSA_TwoGnbs.masterEnb.cellularNic.ip2nic typename "\"simu5g.stack.ip2nic.IP2Nic\""
par NSA_TwoGnbs.masterEnb.cellularNic.ip2nic nodeType "\"ENODEB\""
par NSA_TwoGnbs.masterEnb.cellularNic.ip2nic interfaceTableModule "\"NSA_TwoGnbs.masterEnb.interfaceTable\""
par NSA_TwoGnbs.masterEnb.cellularNic.ip2nic interfaceName "\"cellular\""
par NSA_TwoGnbs.masterEnb.cellularNic.ip2nic routingTableModule "\"^.ipv4.routingTable\""
par "NSA_TwoGnbs.masterEnb.cellularNic.pdcpRrc.NRTxPdcpEntity Cid: 134283265" typename "\"simu5g.stack.pdcp_rrc.NRTxPdcpEntity\""
par NSA_TwoGnbs.masterEnb.cellularNic.pdcpRrc typename "\"simu5g.stack.pdcp_rrc.NRPdcpRrcEnb\""
par NSA_TwoGnbs.masterEnb.cellularNic.pdcpRrc headerCompressedSize -1B
attr unit B
par NSA_TwoGnbs.masterEnb.cellularNic.pdcpRrc conversationalRlc 1
attr enum TM,UM,AM,UNKNOWN_RLC_TYPE
par NSA_TwoGnbs.masterEnb.cellularNic.pdcpRrc streamingRlc 1
attr enum TM,UM,AM,UNKNOWN_RLC_TYPE
par NSA_TwoGnbs.masterEnb.cellularNic.pdcpRrc interactiveRlc 1
attr enum TM,UM,AM,UNKNOWN_RLC_TYPE
par NSA_TwoGnbs.masterEnb.cellularNic.pdcpRrc backgroundRlc 1
attr enum TM,UM,AM,UNKNOWN_RLC_TYPE
par NSA_TwoGnbs.masterEnb.cellularNic.rlc.tm typename "\"simu5g.stack.rlc.LteRlcTm\""
par NSA_TwoGnbs.masterEnb.cellularNic.rlc.tm queueSize 2097152B
attr unit B
par NSA_TwoGnbs.masterEnb.cellularNic.rlc.um typename "\"simu5g.stack.rlc.LteRlcUmD2D\""
par NSA_TwoGnbs.masterEnb.cellularNic.rlc.um queueSize 2097152B
attr unit B
par NSA_TwoGnbs.masterEnb.cellularNic.rlc.um mapAllLcidsToSingleBearer false
par NSA_TwoGnbs.masterEnb.cellularNic.rlc.am typename "\"simu5g.stack.rlc.LteRlcAm\""
par NSA_TwoGnbs.masterEnb.cellularNic.rlc.mux typename "\"simu5g.stack.rlc.LteRlcMux\""
par NSA_TwoGnbs.masterEnb.cellularNic.rlc typename "\"simu5g.stack.rlc.LteRlc\""
par NSA_TwoGnbs.masterEnb.cellularNic.rlc LteRlcUmType "\"LteRlcUm\""
par NSA_TwoGnbs.masterEnb.cellularNic.rlc d2dCapable true
par NSA_TwoGnbs.masterEnb.cellularNic.rlc umType "\"LteRlcUmD2D\""
par NSA_TwoGnbs.masterEnb.cellularNic.mac typename "\"simu5g.stack.mac.LteMacEnbD2D\""
par NSA_TwoGnbs.masterEnb.cellularNic.mac interfaceTableModule "\"NSA_TwoGnbs.masterEnb.interfaceTable\""
par NSA_TwoGnbs.masterEnb.cellularNic.mac interfaceName "\"cellular\""
par NSA_TwoGnbs.masterEnb.cellularNic.mac queueSize 2097152B
attr unit B
par NSA_TwoGnbs.masterEnb.cellularNic.mac muMimo true
par NSA_TwoGnbs.masterEnb.cellularNic.mac harqProcesses 8
par NSA_TwoGnbs.masterEnb.cellularNic.mac maxHarqRtx 3
par NSA_TwoGnbs.masterEnb.cellularNic.mac harqFbEvaluationTimer 4
par NSA_TwoGnbs.masterEnb.cellularNic.mac statDisplay false
par NSA_TwoGnbs.masterEnb.cellularNic.mac amcType "\"LteAmc\""
par NSA_TwoGnbs.masterEnb.cellularNic.mac amcMode "\"AUTO\""
par NSA_TwoGnbs.masterEnb.cellularNic.mac muMimoMinDistance 50
par NSA_TwoGnbs.masterEnb.cellularNic.mac rbAllocationType "\"localized\""
par NSA_TwoGnbs.masterEnb.cellularNic.mac summaryLowerBound 0.005s
attr unit s
par NSA_TwoGnbs.masterEnb.cellularNic.mac summaryUpperBound 0.02s
attr unit s
par NSA_TwoGnbs.masterEnb.cellularNic.mac fbhbCapacityDl 5
par NSA_TwoGnbs.masterEnb.cellularNic.mac fbhbCapacityUl 5
par NSA_TwoGnbs.masterEnb.cellularNic.mac fbhbCapacityD2D 5
par NSA_TwoGnbs.masterEnb.cellularNic.mac pmiWeight 0
par NSA_TwoGnbs.masterEnb.cellularNic.mac cqiWeight 0
par NSA_TwoGnbs.masterEnb.cellularNic.mac eNodeBCount 0
par NSA_TwoGnbs.masterEnb.cellularNic.mac schedulingDisciplineDl "\"MAXCI\""
par NSA_TwoGnbs.masterEnb.cellularNic.mac schedulingDisciplineUl "\"MAXCI\""
par NSA_TwoGnbs.masterEnb.cellularNic.mac pfAlpha 0.95
par NSA_TwoGnbs.masterEnb.cellularNic.mac pilotMode "\"ROBUST_CQI\""
par NSA_TwoGnbs.masterEnb.cellularNic.mac usePreconfiguredTxParams false
par NSA_TwoGnbs.masterEnb.cellularNic.mac d2dCqi 7
par NSA_TwoGnbs.masterEnb.cellularNic.mac reuseD2D false
par NSA_TwoGnbs.masterEnb.cellularNic.mac reuseD2DMulti false
par NSA_TwoGnbs.masterEnb.cellularNic.mac conflictGraphUpdatePeriod 1s
attr unit s
par NSA_TwoGnbs.masterEnb.cellularNic.mac conflictGraphThreshold 90
par NSA_TwoGnbs.masterEnb.cellularNic.mac conflictGraphD2DInterferenceRadius -1m
attr unit m
par NSA_TwoGnbs.masterEnb.cellularNic.mac conflictGraphD2DMultiTxRadius -1m
attr unit m
par NSA_TwoGnbs.masterEnb.cellularNic.mac conflictGraphD2DMultiInterferenceRadius -1m
attr unit m
par NSA_TwoGnbs.masterEnb.cellularNic.mac msHarqInterrupt true
par NSA_TwoGnbs.masterEnb.cellularNic.mac msClearRlcBuffer true
par NSA_TwoGnbs.masterEnb.cellularNic.phy typename "\"simu5g.stack.phy.LtePhyEnbD2D\""
par NSA_TwoGnbs.masterEnb.cellularNic.phy ueTxPower 26
par NSA_TwoGnbs.masterEnb.cellularNic.phy eNodeBTxPower 40
par NSA_TwoGnbs.masterEnb.cellularNic.phy microTxPower 30
par NSA_TwoGnbs.masterEnb.cellularNic.phy txDirection "\"OMNI\""
par NSA_TwoGnbs.masterEnb.cellularNic.phy txAngle 0
par NSA_TwoGnbs.masterEnb.cellularNic.phy dynamicCellAssociation true
par NSA_TwoGnbs.masterEnb.cellularNic.phy enableHandover false
par NSA_TwoGnbs.masterEnb.cellularNic.phy handoverLatency 0.05s
attr unit s
par NSA_TwoGnbs.masterEnb.cellularNic.phy hysteresisFactor 10
par NSA_TwoGnbs.masterEnb.cellularNic.phy hysteresis 5
par NSA_TwoGnbs.masterEnb.cellularNic.phy enableMulticastD2DRangeCheck false
par NSA_TwoGnbs.masterEnb.cellularNic.phy multicastD2DRange 1000m
attr unit m
par NSA_TwoGnbs.masterEnb.cellularNic.phy targetBler 0.01
par NSA_TwoGnbs.masterEnb.cellularNic.phy lambdaMinTh 0.02
par NSA_TwoGnbs.masterEnb.cellularNic.phy lambdaMaxTh 0.2
par NSA_TwoGnbs.masterEnb.cellularNic.phy lambdaRatioTh 20
par NSA_TwoGnbs.masterEnb.cellularNic.phy enableD2DCqiReporting true
par NSA_TwoGnbs.masterEnb.cellularNic.channelModel[0] typename "\"simu5g.stack.phy.ChannelModel.LteRealisticChannelModel\""
par NSA_TwoGnbs.masterEnb.cellularNic.channelModel[0] componentCarrierIndex 0
par NSA_TwoGnbs.masterEnb.cellularNic.channelModel[0] shadowing true
par NSA_TwoGnbs.masterEnb.cellularNic.channelModel[0] scenario "\"URBAN_MACROCELL\""
par NSA_TwoGnbs.masterEnb.cellularNic.channelModel[0] nodeb_height 25
par NSA_TwoGnbs.masterEnb.cellularNic.channelModel[0] building_height 20
par NSA_TwoGnbs.masterEnb.cellularNic.channelModel[0] inside_building false
par NSA_TwoGnbs.masterEnb.cellularNic.channelModel[0] street_wide 20
par NSA_TwoGnbs.masterEnb.cellularNic.channelModel[0] ue_height 1.5
par NSA_TwoGnbs.masterEnb.cellularNic.channelModel[0] tolerateMaxDistViolation false
par NSA_TwoGnbs.masterEnb.cellularNic.channelModel[0] useTorus false
par NSA_TwoGnbs.masterEnb.cellularNic.channelModel[0] correlation_distance 50
par NSA_TwoGnbs.masterEnb.cellularNic.channelModel[0] targetBler 0.01
par NSA_TwoGnbs.masterEnb.cellularNic.channelModel[0] harqReduction 0.2
par NSA_TwoGnbs.masterEnb.cellularNic.channelModel[0] lambdaMinTh 0.02
par NSA_TwoGnbs.masterEnb.cellularNic.channelModel[0] lambdaMaxTh 0.2
par NSA_TwoGnbs.masterEnb.cellularNic.channelModel[0] lambdaRatioTh 20
par NSA_TwoGnbs.masterEnb.cellularNic.channelModel[0] antennaGainUe 0
par NSA_TwoGnbs.masterEnb.cellularNic.channelModel[0] antennGainEnB 18
par NSA_TwoGnbs.masterEnb.cellularNic.channelModel[0] antennGainMicro 5
par NSA_TwoGnbs.masterEnb.cellularNic.channelModel[0] thermalNoise -104.5
par NSA_TwoGnbs.masterEnb.cellularNic.channelModel[0] ue_noise_figure 7
par NSA_TwoGnbs.masterEnb.cellularNic.channelModel[0] bs_noise_figure 5
par NSA_TwoGnbs.masterEnb.cellularNic.channelModel[0] cable_loss 2
par NSA_TwoGnbs.masterEnb.cellularNic.channelModel[0] dynamic_los false
par NSA_TwoGnbs.masterEnb.cellularNic.channelModel[0] fixed_los false
par NSA_TwoGnbs.masterEnb.cellularNic.channelModel[0] fading true
par NSA_TwoGnbs.masterEnb.cellularNic.channelModel[0] fading_type "\"JAKES\""
par NSA_TwoGnbs.masterEnb.cellularNic.channelModel[0] fading_paths 6
par NSA_TwoGnbs.masterEnb.cellularNic.channelModel[0] delay_rms 3.63e-07
par NSA_TwoGnbs.masterEnb.cellularNic.channelModel[0] bgCell_interference true
par NSA_TwoGnbs.masterEnb.cellularNic.channelModel[0] extCell_interference true
par NSA_TwoGnbs.masterEnb.cellularNic.channelModel[0] downlink_interference false
par NSA_TwoGnbs.masterEnb.cellularNic.channelModel[0] uplink_interference false
par NSA_TwoGnbs.masterEnb.cellularNic.channelModel[0] d2d_interference true
par NSA_TwoGnbs.masterEnb.cellularNic.channelModel[0] enable_extCell_los true
par NSA_TwoGnbs.masterEnb.cellularNic.channelModel[0] useRsrqFromLog false
par NSA_TwoGnbs.masterEnb.cellularNic.channelModel[0] rsrqShift 22
par NSA_TwoGnbs.masterEnb.cellularNic.channelModel[0] rsrqScale 1
par NSA_TwoGnbs.masterEnb.cellularNic.channelModel[0] collectSinrStatistics true
par NSA_TwoGnbs.masterEnb.cellularNic.x2Manager typename "\"simu5g.x2.LteX2Manager\""
par NSA_TwoGnbs.masterEnb.cellularNic.handoverManager typename "\"simu5g.stack.handoverManager.LteHandoverManager\""
par NSA_TwoGnbs.masterEnb.cellularNic.handoverManager losslessHandover false
par NSA_TwoGnbs.masterEnb.cellularNic.dualConnectivityManager typename "\"simu5g.stack.dualConnectivityManager.DualConnectivityManager\""
par NSA_TwoGnbs.masterEnb.cellularNic.bgTrafficGenerator[0].manager typename "\"simu5g.stack.backgroundTrafficGenerator.BackgroundTrafficManager\""
par NSA_TwoGnbs.masterEnb.cellularNic.bgTrafficGenerator[0] typename "\"simu5g.stack.backgroundTrafficGenerator.BackgroundTrafficGenerator\""
par NSA_TwoGnbs.masterEnb.cellularNic.bgTrafficGenerator[0] numBgUes 0
par NSA_TwoGnbs.masterEnb.cellularNic.bgTrafficGenerator[0] bgTrafficManagerType "\"BackgroundTrafficManager\""
par NSA_TwoGnbs.masterEnb.cellularNic.bgTrafficGenerator[0] enablePeriodicCqiUpdate true
par NSA_TwoGnbs.masterEnb.cellularNic.bgTrafficGenerator[0] useProbabilisticCqi false
par NSA_TwoGnbs.masterEnb.cellularNic.bgTrafficGenerator[0] computeAvgInterference false
par NSA_TwoGnbs.masterEnb.cellularNic.d2dModeSelection typename "\"simu5g.stack.d2dModeSelection.D2DModeSelectionBase\""
par NSA_TwoGnbs.masterEnb.cellularNic.d2dModeSelection modeSelectionPeriod 1s
attr unit s
par NSA_TwoGnbs.masterEnb.cellularNic typename "\"simu5g.stack.LteNicEnbD2D\""
par NSA_TwoGnbs.masterEnb.cellularNic displayStringTextFormat "\"%a (%i)\\n%m\""
par NSA_TwoGnbs.masterEnb.cellularNic recordPcap false
par NSA_TwoGnbs.masterEnb.cellularNic numPcapRecorders 0
par NSA_TwoGnbs.masterEnb.cellularNic isWireless true
par NSA_TwoGnbs.masterEnb.cellularNic interfaceTableModule "\"NSA_TwoGnbs.masterEnb.interfaceTable\""
par NSA_TwoGnbs.masterEnb.cellularNic routingTableModule "\"^.ipv4.routingTable\""
par NSA_TwoGnbs.masterEnb.cellularNic LtePdcpRrcType "\"NRPdcpRrcEnb\""
par NSA_TwoGnbs.masterEnb.cellularNic LteMacType "\"LteMacEnbD2D\""
par NSA_TwoGnbs.masterEnb.cellularNic PacketFlowManagerType "\"PacketFlowManagerEnb\""
par NSA_TwoGnbs.masterEnb.cellularNic hasRNISupport false
par NSA_TwoGnbs.masterEnb.cellularNic LtePhyType "\"LtePhyEnbD2D\""
par NSA_TwoGnbs.masterEnb.cellularNic nodeType "\"ENODEB\""
par NSA_TwoGnbs.masterEnb.cellularNic processingDelayIn 0s
attr unit s
par NSA_TwoGnbs.masterEnb.cellularNic processingDelayOut 0s
attr unit s
par NSA_TwoGnbs.masterEnb.cellularNic LteChannelModelType "\"LteRealisticChannelModel\""
par NSA_TwoGnbs.masterEnb.cellularNic d2dCapable true
par NSA_TwoGnbs.masterEnb.cellularNic dualConnectivityEnabled true
par NSA_TwoGnbs.masterEnb.cellularNic numCarriers 1
par NSA_TwoGnbs.masterEnb.cellularNic address "\"0A-AA-00-00-00-01\""
attr mutable ""
par NSA_TwoGnbs.masterEnb.cellularNic compEnabled false
par NSA_TwoGnbs.masterEnb.cellularNic LteCompManagerType "\"LteCompManagerProportional\""
par NSA_TwoGnbs.masterEnb.cellularNic d2dModeSelectionType "\"D2DModeSelectionBase\""
par NSA_TwoGnbs.masterEnb.pppIf.phys$i.channel typename "\"ned.IdealChannel\""
par NSA_TwoGnbs.masterEnb.pppIf.ppp.phys$o.channel typename "\"ned.IdealChannel\""
par NSA_TwoGnbs.masterEnb.pppIf.ppp.upperLayerOut.channel typename "\"ned.IdealChannel\""
par NSA_TwoGnbs.masterEnb.pppIf.upperLayerIn.channel typename "\"ned.IdealChannel\""
par NSA_TwoGnbs.masterEnb.pppIf.queue typename "\"inet.queueing.queue.DropTailQueue\""
par NSA_TwoGnbs.masterEnb.pppIf.queue displayStringTextFormat "\"contains %p pk (%l) pushed %u\\npulled %o removed %r dropped %d\""
par NSA_TwoGnbs.masterEnb.pppIf.queue packetCapacity 10000
par NSA_TwoGnbs.masterEnb.pppIf.queue dataCapacity -1b
attr unit b
par NSA_TwoGnbs.masterEnb.pppIf.queue dropperClass "\"inet::queueing::PacketAtCollectionEndDropper\""
par NSA_TwoGnbs.masterEnb.pppIf.queue comparatorClass "\"\""
par NSA_TwoGnbs.masterEnb.pppIf.queue bufferModule "\"\""
par NSA_TwoGnbs.masterEnb.pppIf.ppp typename "\"inet.linklayer.ppp.Ppp\""
par NSA_TwoGnbs.masterEnb.pppIf.ppp interfaceTableModule "\"NSA_TwoGnbs.masterEnb.interfaceTable\""
par NSA_TwoGnbs.masterEnb.pppIf.ppp displayStringTextFormat "\"rate: %b\\nsent: %s, rcvd: %r\\nqueue: %q, drop: %d\""
par NSA_TwoGnbs.masterEnb.pppIf.ppp sendRawBytes false
par NSA_TwoGnbs.masterEnb.pppIf.ppp mtu 4470B
attr unit B
par NSA_TwoGnbs.masterEnb.pppIf.ppp stopOperationExtraTime -1s
attr unit s
par NSA_TwoGnbs.masterEnb.pppIf.ppp stopOperationTimeout 2s
attr unit s
par NSA_TwoGnbs.masterEnb.pppIf typename "\"inet.linklayer.ppp.PppInterface\""
par NSA_TwoGnbs.masterEnb.pppIf displayStringTextFormat "\"%a (%i)\\n%m\""
par NSA_TwoGnbs.masterEnb.pppIf recordPcap false
par NSA_TwoGnbs.masterEnb.pppIf numPcapRecorders 0
par NSA_TwoGnbs.masterEnb.pppIf interfaceTableModule "\"NSA_TwoGnbs.masterEnb.interfaceTable\""
par NSA_TwoGnbs.masterEnb.x2ppp[0].phys$i.channel typename "\"ned.IdealChannel\""
par NSA_TwoGnbs.masterEnb.x2ppp[0].ppp.phys$o.channel typename "\"ned.IdealChannel\""
par NSA_TwoGnbs.masterEnb.x2ppp[0].ppp.upperLayerOut.channel typename "\"ned.IdealChannel\""
par NSA_TwoGnbs.masterEnb.x2ppp[0].upperLayerIn.channel typename "\"ned.IdealChannel\""
par NSA_TwoGnbs.masterEnb.x2ppp[0].queue typename "\"inet.queueing.queue.DropTailQueue\""
par NSA_TwoGnbs.masterEnb.x2ppp[0].queue displayStringTextFormat "\"contains %p pk (%l) pushed %u\\npulled %o removed %r dropped %d\""
par NSA_TwoGnbs.masterEnb.x2ppp[0].queue packetCapacity 10000
par NSA_TwoGnbs.masterEnb.x2ppp[0].queue dataCapacity -1b
attr unit b
par NSA_TwoGnbs.masterEnb.x2ppp[0].queue dropperClass "\"inet::queueing::PacketAtCollectionEndDropper\""
par NSA_TwoGnbs.masterEnb.x2ppp[0].queue comparatorClass "\"\""
par NSA_TwoGnbs.masterEnb.x2ppp[0].queue bufferModule "\"\""
par NSA_TwoGnbs.masterEnb.x2ppp[0].ppp typename "\"inet.linklayer.ppp.Ppp\""
par NSA_TwoGnbs.masterEnb.x2ppp[0].ppp interfaceTableModule "\"NSA_TwoGnbs.masterEnb.interfaceTable\""
par NSA_TwoGnbs.masterEnb.x2ppp[0].ppp displayStringTextFormat "\"rate: %b\\nsent: %s, rcvd: %r\\nqueue: %q, drop: %d\""
par NSA_TwoGnbs.masterEnb.x2ppp[0].ppp sendRawBytes false
par NSA_TwoGnbs.masterEnb.x2ppp[0].ppp mtu 4470B
attr unit B
par NSA_TwoGnbs.masterEnb.x2ppp[0].ppp stopOperationExtraTime -1s
attr unit s
par NSA_TwoGnbs.masterEnb.x2ppp[0].ppp stopOperationTimeout 2s
attr unit s
par NSA_TwoGnbs.masterEnb.x2ppp[0] typename "\"inet.linklayer.ppp.PppInterface\""
par NSA_TwoGnbs.masterEnb.x2ppp[0] displayStringTextFormat "\"%a (%i)\\n%m\""
par NSA_TwoGnbs.masterEnb.x2ppp[0] recordPcap false
par NSA_TwoGnbs.masterEnb.x2ppp[0] numPcapRecorders 0
par NSA_TwoGnbs.masterEnb.x2ppp[0] interfaceTableModule "\"NSA_TwoGnbs.masterEnb.interfaceTable\""
par NSA_TwoGnbs.masterEnb.x2ppp[1].phys$i.channel typename "\"ned.IdealChannel\""
par NSA_TwoGnbs.masterEnb.x2ppp[1].ppp.phys$o.channel typename "\"ned.IdealChannel\""
par NSA_TwoGnbs.masterEnb.x2ppp[1].ppp.upperLayerOut.channel typename "\"ned.IdealChannel\""
par NSA_TwoGnbs.masterEnb.x2ppp[1].upperLayerIn.channel typename "\"ned.IdealChannel\""
par NSA_TwoGnbs.masterEnb.x2ppp[1].queue typename "\"inet.queueing.queue.DropTailQueue\""
par NSA_TwoGnbs.masterEnb.x2ppp[1].queue displayStringTextFormat "\"contains %p pk (%l) pushed %u\\npulled %o removed %r dropped %d\""
par NSA_TwoGnbs.masterEnb.x2ppp[1].queue packetCapacity 10000
par NSA_TwoGnbs.masterEnb.x2ppp[1].queue dataCapacity -1b
attr unit b
par NSA_TwoGnbs.masterEnb.x2ppp[1].queue dropperClass "\"inet::queueing::PacketAtCollectionEndDropper\""
par NSA_TwoGnbs.masterEnb.x2ppp[1].queue comparatorClass "\"\""
par NSA_TwoGnbs.masterEnb.x2ppp[1].queue bufferModule "\"\""
par NSA_TwoGnbs.masterEnb.x2ppp[1].ppp typename "\"inet.linklayer.ppp.Ppp\""
par NSA_TwoGnbs.masterEnb.x2ppp[1].ppp interfaceTableModule "\"NSA_TwoGnbs.masterEnb.interfaceTable\""
par NSA_TwoGnbs.masterEnb.x2ppp[1].ppp displayStringTextFormat "\"rate: %b\\nsent: %s, rcvd: %r\\nqueue: %q, drop: %d\""
par NSA_TwoGnbs.masterEnb.x2ppp[1].ppp sendRawBytes false
par NSA_TwoGnbs.masterEnb.x2ppp[1].ppp mtu 4470B
attr unit B
par NSA_TwoGnbs.masterEnb.x2ppp[1].ppp stopOperationExtraTime -1s
attr unit s
par NSA_TwoGnbs.masterEnb.x2ppp[1].ppp stopOperationTimeout 2s
attr unit s
par NSA_TwoGnbs.masterEnb.x2ppp[1] typename "\"inet.linklayer.ppp.PppInterface\""
par NSA_TwoGnbs.masterEnb.x2ppp[1] displayStringTextFormat "\"%a (%i)\\n%m\""
par NSA_TwoGnbs.masterEnb.x2ppp[1] recordPcap false
par NSA_TwoGnbs.masterEnb.x2ppp[1] numPcapRecorders 0
par NSA_TwoGnbs.masterEnb.x2ppp[1] interfaceTableModule "\"NSA_TwoGnbs.masterEnb.interfaceTable\""
par NSA_TwoGnbs.masterEnb.pppMEHostIf.phys$i.channel typename "\"ned.IdealChannel\""
par NSA_TwoGnbs.masterEnb.pppMEHostIf.ppp.phys$o.channel typename "\"ned.IdealChannel\""
par NSA_TwoGnbs.masterEnb.pppMEHostIf.ppp.upperLayerOut.channel typename "\"ned.IdealChannel\""
par NSA_TwoGnbs.masterEnb.pppMEHostIf.upperLayerIn.channel typename "\"ned.IdealChannel\""
par NSA_TwoGnbs.masterEnb.pppMEHostIf.queue typename "\"inet.queueing.queue.DropTailQueue\""
par NSA_TwoGnbs.masterEnb.pppMEHostIf.queue displayStringTextFormat "\"contains %p pk (%l) pushed %u\\npulled %o removed %r dropped %d\""
par NSA_TwoGnbs.masterEnb.pppMEHostIf.queue packetCapacity 10000
par NSA_TwoGnbs.masterEnb.pppMEHostIf.queue dataCapacity -1b
attr unit b
par NSA_TwoGnbs.masterEnb.pppMEHostIf.queue dropperClass "\"inet::queueing::PacketAtCollectionEndDropper\""
par NSA_TwoGnbs.masterEnb.pppMEHostIf.queue comparatorClass "\"\""
par NSA_TwoGnbs.masterEnb.pppMEHostIf.queue bufferModule "\"\""
par NSA_TwoGnbs.masterEnb.pppMEHostIf.ppp typename "\"inet.linklayer.ppp.Ppp\""
par NSA_TwoGnbs.masterEnb.pppMEHostIf.ppp interfaceTableModule "\"NSA_TwoGnbs.masterEnb.interfaceTable\""
par NSA_TwoGnbs.masterEnb.pppMEHostIf.ppp displayStringTextFormat "\"rate: %b\\nsent: %s, rcvd: %r\\nqueue: %q, drop: %d\""
par NSA_TwoGnbs.masterEnb.pppMEHostIf.ppp sendRawBytes false
par NSA_TwoGnbs.masterEnb.pppMEHostIf.ppp mtu 4470B
attr unit B
par NSA_TwoGnbs.masterEnb.pppMEHostIf.ppp stopOperationExtraTime -1s
attr unit s
par NSA_TwoGnbs.masterEnb.pppMEHostIf.ppp stopOperationTimeout 2s
attr unit s
par NSA_TwoGnbs.masterEnb.pppMEHostIf typename "\"inet.linklayer.ppp.PppInterface\""
par NSA_TwoGnbs.masterEnb.pppMEHostIf displayStringTextFormat "\"%a (%i)\\n%m\""
par NSA_TwoGnbs.masterEnb.pppMEHostIf recordPcap false
par NSA_TwoGnbs.masterEnb.pppMEHostIf numPcapRecorders 0
par NSA_TwoGnbs.masterEnb.pppMEHostIf interfaceTableModule "\"NSA_TwoGnbs.masterEnb.interfaceTable\""
par NSA_TwoGnbs.masterEnb.ipv4.transportIn.channel typename "\"ned.IdealChannel\""
par NSA_TwoGnbs.masterEnb.ipv4.up.out[0].channel typename "\"ned.IdealChannel\""
par NSA_TwoGnbs.masterEnb.ipv4.lp.out[2].channel typename "\"ned.IdealChannel\""
par NSA_TwoGnbs.masterEnb.ipv4.ifIn.channel typename "\"ned.IdealChannel\""
par NSA_TwoGnbs.masterEnb.ipv4.configurator typename "\"inet.networklayer.configurator.ipv4.Ipv4NodeConfigurator\""
par NSA_TwoGnbs.masterEnb.ipv4.configurator interfaceTableModule "\"NSA_TwoGnbs.masterEnb.interfaceTable\""
par NSA_TwoGnbs.masterEnb.ipv4.configurator routingTableModule "\"NSA_TwoGnbs.masterEnb.ipv4.routingTable\""
par NSA_TwoGnbs.masterEnb.ipv4.configurator networkConfiguratorModule "\"configurator\""
par NSA_TwoGnbs.masterEnb.ipv4.configurator configureRoutingTable true
par NSA_TwoGnbs.masterEnb.ipv4.routingTable typename "\"inet.networklayer.ipv4.Ipv4RoutingTable\""
par NSA_TwoGnbs.masterEnb.ipv4.routingTable interfaceTableModule "\"NSA_TwoGnbs.masterEnb.interfaceTable\""
par NSA_TwoGnbs.masterEnb.ipv4.routingTable routerId "\"auto\""
par NSA_TwoGnbs.masterEnb.ipv4.routingTable netmaskRoutes "\"*\""
par NSA_TwoGnbs.masterEnb.ipv4.routingTable forwarding true
par NSA_TwoGnbs.masterEnb.ipv4.routingTable multicastForwarding false
par NSA_TwoGnbs.masterEnb.ipv4.routingTable useAdminDist false
par NSA_TwoGnbs.masterEnb.ipv4.routingTable routingFile "\"\""
par NSA_TwoGnbs.masterEnb.ipv4.natTable typename "\"inet.networklayer.ipv4.Ipv4NatTable\""
par NSA_TwoGnbs.masterEnb.ipv4.natTable networkProtocolModule "\"^.ip\""
par NSA_TwoGnbs.masterEnb.ipv4.natTable config "<config/> at content:1"
par NSA_TwoGnbs.masterEnb.ipv4.up typename "\"inet.common.MessageDispatcher\""
par NSA_TwoGnbs.masterEnb.ipv4.up displayStringTextFormat "\"processed %p pk (%l)\""
par NSA_TwoGnbs.masterEnb.ipv4.up forwardServiceRegistration true
par NSA_TwoGnbs.masterEnb.ipv4.up forwardProtocolRegistration true
par NSA_TwoGnbs.masterEnb.ipv4.igmp typename "\"inet.networklayer.ipv4.Igmpv2\""
par NSA_TwoGnbs.masterEnb.ipv4.igmp interfaceTableModule "\"NSA_TwoGnbs.masterEnb.interfaceTable\""
par NSA_TwoGnbs.masterEnb.ipv4.igmp routingTableModule "\"NSA_TwoGnbs.masterEnb.ipv4.routingTable\""
par NSA_TwoGnbs.masterEnb.ipv4.igmp crcMode "\"declared\""
attr enum declared,computed
par NSA_TwoGnbs.masterEnb.ipv4.igmp enabled true
par NSA_TwoGnbs.masterEnb.ipv4.igmp robustnessVariable 2
par NSA_TwoGnbs.masterEnb.ipv4.igmp queryInterval 125s
attr unit s
par NSA_TwoGnbs.masterEnb.ipv4.igmp queryResponseInterval 10s
attr unit s
par NSA_TwoGnbs.masterEnb.ipv4.igmp groupMembershipInterval 260s
attr unit s
par NSA_TwoGnbs.masterEnb.ipv4.igmp otherQuerierPresentInterval 255s
attr unit s
par NSA_TwoGnbs.masterEnb.ipv4.igmp startupQueryInterval 31.25s
attr unit s
par NSA_TwoGnbs.masterEnb.ipv4.igmp startupQueryCount 2
par NSA_TwoGnbs.masterEnb.ipv4.igmp lastMemberQueryInterval 1s
attr unit s
par NSA_TwoGnbs.masterEnb.ipv4.igmp lastMemberQueryCount 2
par NSA_TwoGnbs.masterEnb.ipv4.igmp unsolicitedReportInterval 10s
attr unit s
par NSA_TwoGnbs.masterEnb.ipv4.icmp typename "\"inet.networklayer.ipv4.Icmp\""
par NSA_TwoGnbs.masterEnb.ipv4.icmp interfaceTableModule "\"NSA_TwoGnbs.masterEnb.interfaceTable\""
par NSA_TwoGnbs.masterEnb.ipv4.icmp routingTableModule "\"NSA_TwoGnbs.masterEnb.ipv4.routingTable\""
par NSA_TwoGnbs.masterEnb.ipv4.icmp crcMode "\"declared\""
attr enum declared,computed
attr mutable ""
par NSA_TwoGnbs.masterEnb.ipv4.icmp quoteLength 8B
attr mutable ""
attr unit B
par NSA_TwoGnbs.masterEnb.ipv4.mp typename "\"inet.common.MessageDispatcher\""
par NSA_TwoGnbs.masterEnb.ipv4.mp displayStringTextFormat "\"processed %p pk (%l)\""
par NSA_TwoGnbs.masterEnb.ipv4.mp forwardServiceRegistration true
par NSA_TwoGnbs.masterEnb.ipv4.mp forwardProtocolRegistration true
par NSA_TwoGnbs.masterEnb.ipv4.ip typename "\"inet.networklayer.ipv4.Ipv4\""
par NSA_TwoGnbs.masterEnb.ipv4.ip interfaceTableModule "\"NSA_TwoGnbs.masterEnb.interfaceTable\""
par NSA_TwoGnbs.masterEnb.ipv4.ip routingTableModule "\"NSA_TwoGnbs.masterEnb.ipv4.routingTable\""
par NSA_TwoGnbs.masterEnb.ipv4.ip arpModule "\"NSA_TwoGnbs.masterEnb.ipv4.arp\""
par NSA_TwoGnbs.masterEnb.ipv4.ip icmpModule "\"NSA_TwoGnbs.masterEnb.ipv4.icmp\""
par NSA_TwoGnbs.masterEnb.ipv4.ip crcMode "\"declared\""
attr enum declared,computed
par NSA_TwoGnbs.masterEnb.ipv4.ip timeToLive 32
par NSA_TwoGnbs.masterEnb.ipv4.ip multicastTimeToLive 32
par NSA_TwoGnbs.masterEnb.ipv4.ip fragmentTimeout 60s
attr unit s
par NSA_TwoGnbs.masterEnb.ipv4.ip limitedBroadcast false
par NSA_TwoGnbs.masterEnb.ipv4.ip directBroadcastInterfaces "\"\""
par NSA_TwoGnbs.masterEnb.ipv4.arp typename "\"inet.networklayer.arp.ipv4.Arp\""
par NSA_TwoGnbs.masterEnb.ipv4.arp interfaceTableModule "\"NSA_TwoGnbs.masterEnb.interfaceTable\""
par NSA_TwoGnbs.masterEnb.ipv4.arp routingTableModule "\"NSA_TwoGnbs.masterEnb.ipv4.routingTable\""
par NSA_TwoGnbs.masterEnb.ipv4.arp retryTimeout 1s
attr unit s
[...]
par NSA_TwoGnbs.ue[0].cellularNic.channelModel[0] thermalNoise -104.5
par NSA_TwoGnbs.ue[0].cellularNic.channelModel[0] ue_noise_figure 7
par NSA_TwoGnbs.ue[0].cellularNic.channelModel[0] bs_noise_figure 5
par NSA_TwoGnbs.ue[0].cellularNic.channelModel[0] cable_loss 2
par NSA_TwoGnbs.ue[0].cellularNic.channelModel[0] dynamic_los false
par NSA_TwoGnbs.ue[0].cellularNic.channelModel[0] fixed_los false
par NSA_TwoGnbs.ue[0].cellularNic.channelModel[0] fading true
par NSA_TwoGnbs.ue[0].cellularNic.channelModel[0] fading_type "\"JAKES\""
par NSA_TwoGnbs.ue[0].cellularNic.channelModel[0] fading_paths 6
par NSA_TwoGnbs.ue[0].cellularNic.channelModel[0] delay_rms 3.63e-07
par NSA_TwoGnbs.ue[0].cellularNic.channelModel[0] bgCell_interference true
par NSA_TwoGnbs.ue[0].cellularNic.channelModel[0] extCell_interference true
par NSA_TwoGnbs.ue[0].cellularNic.channelModel[0] downlink_interference false
par NSA_TwoGnbs.ue[0].cellularNic.channelModel[0] uplink_interference false
par NSA_TwoGnbs.ue[0].cellularNic.channelModel[0] d2d_interference true
par NSA_TwoGnbs.ue[0].cellularNic.channelModel[0] enable_extCell_los true
par NSA_TwoGnbs.ue[0].cellularNic.channelModel[0] useRsrqFromLog false
par NSA_TwoGnbs.ue[0].cellularNic.channelModel[0] rsrqShift 22
par NSA_TwoGnbs.ue[0].cellularNic.channelModel[0] rsrqScale 1
par NSA_TwoGnbs.ue[0].cellularNic.channelModel[0] collectSinrStatistics true
par NSA_TwoGnbs.ue[0].cellularNic.dlFbGen typename "\"simu5g.stack.phy.feedback.LteDlFeedbackGenerator\""
par NSA_TwoGnbs.ue[0].cellularNic.dlFbGen feedbackType "\"ALLBANDS\""
par NSA_TwoGnbs.ue[0].cellularNic.dlFbGen rbAllocationType "\"localized\""
par NSA_TwoGnbs.ue[0].cellularNic.dlFbGen fbPeriod 6
par NSA_TwoGnbs.ue[0].cellularNic.dlFbGen fbDelay 1
par NSA_TwoGnbs.ue[0].cellularNic.dlFbGen usePeriodic true
par NSA_TwoGnbs.ue[0].cellularNic.dlFbGen initialTxMode "\"SINGLE_ANTENNA_PORT0\""
par NSA_TwoGnbs.ue[0].cellularNic.dlFbGen feedbackGeneratorType "\"IDEAL\""
par NSA_TwoGnbs.ue[0].cellularNic.nrRlc.tm typename "\"simu5g.stack.rlc.LteRlcTm\""
par NSA_TwoGnbs.ue[0].cellularNic.nrRlc.tm queueSize 2097152B
attr unit B
par NSA_TwoGnbs.ue[0].cellularNic.nrRlc.um typename "\"simu5g.stack.rlc.LteRlcUmD2D\""
par NSA_TwoGnbs.ue[0].cellularNic.nrRlc.um queueSize 2097152B
attr unit B
par NSA_TwoGnbs.ue[0].cellularNic.nrRlc.um mapAllLcidsToSingleBearer false
par NSA_TwoGnbs.ue[0].cellularNic.nrRlc.am typename "\"simu5g.stack.rlc.LteRlcAm\""
par NSA_TwoGnbs.ue[0].cellularNic.nrRlc.mux typename "\"simu5g.stack.rlc.LteRlcMux\""
par "NSA_TwoGnbs.ue[0].cellularNic.nrRlc.UmRxEntity Lcid: 1 cid: 134283265" typename "\"simu5g.stack.rlc.UmRxEntity\""
par "NSA_TwoGnbs.ue[0].cellularNic.nrRlc.UmRxEntity Lcid: 1 cid: 134283265" timeout 1s
attr unit s
par "NSA_TwoGnbs.ue[0].cellularNic.nrRlc.UmRxEntity Lcid: 1 cid: 134283265" rxWindowSize 16
par NSA_TwoGnbs.ue[0].cellularNic.nrRlc typename "\"simu5g.stack.rlc.LteRlc\""
par NSA_TwoGnbs.ue[0].cellularNic.nrRlc LteRlcUmType "\"LteRlcUm\""
par NSA_TwoGnbs.ue[0].cellularNic.nrRlc d2dCapable true
par NSA_TwoGnbs.ue[0].cellularNic.nrRlc umType "\"LteRlcUmD2D\""
par NSA_TwoGnbs.ue[0].cellularNic.nrMac typename "\"simu5g.stack.mac.NRMacUe\""
par NSA_TwoGnbs.ue[0].cellularNic.nrMac interfaceTableModule "\"NSA_TwoGnbs.ue[0].interfaceTable\""
par NSA_TwoGnbs.ue[0].cellularNic.nrMac interfaceName "\"cellular\""
par NSA_TwoGnbs.ue[0].cellularNic.nrMac queueSize 2097152B
attr unit B
par NSA_TwoGnbs.ue[0].cellularNic.nrMac muMimo true
par NSA_TwoGnbs.ue[0].cellularNic.nrMac harqProcesses 8
par NSA_TwoGnbs.ue[0].cellularNic.nrMac maxHarqRtx 3
par NSA_TwoGnbs.ue[0].cellularNic.nrMac harqFbEvaluationTimer 4
par NSA_TwoGnbs.ue[0].cellularNic.nrMac statDisplay false
par NSA_TwoGnbs.ue[0].cellularNic.nrMac usePreconfiguredTxParams false
par NSA_TwoGnbs.ue[0].cellularNic.nrMac d2dCqi 7
par NSA_TwoGnbs.ue[0].cellularNic.nrPhy typename "\"simu5g.stack.phy.NRPhyUe\""
par NSA_TwoGnbs.ue[0].cellularNic.nrPhy ueTxPower 26
par NSA_TwoGnbs.ue[0].cellularNic.nrPhy eNodeBTxPower 40
par NSA_TwoGnbs.ue[0].cellularNic.nrPhy microTxPower 30
par NSA_TwoGnbs.ue[0].cellularNic.nrPhy txDirection "\"OMNI\""
par NSA_TwoGnbs.ue[0].cellularNic.nrPhy txAngle 0
par NSA_TwoGnbs.ue[0].cellularNic.nrPhy dynamicCellAssociation true
par NSA_TwoGnbs.ue[0].cellularNic.nrPhy enableHandover true
par NSA_TwoGnbs.ue[0].cellularNic.nrPhy handoverLatency 0.05s
attr unit s
par NSA_TwoGnbs.ue[0].cellularNic.nrPhy hysteresisFactor 10
par NSA_TwoGnbs.ue[0].cellularNic.nrPhy hysteresis 5
par NSA_TwoGnbs.ue[0].cellularNic.nrPhy enableMulticastD2DRangeCheck false
par NSA_TwoGnbs.ue[0].cellularNic.nrPhy multicastD2DRange 1000m
attr unit m
par NSA_TwoGnbs.ue[0].cellularNic.nrPhy minRssiDefault true
par NSA_TwoGnbs.ue[0].cellularNic.nrPhy minRssi -99dB
attr unit dB
par NSA_TwoGnbs.ue[0].cellularNic.nrPhy d2dTxPower 26
par NSA_TwoGnbs.ue[0].cellularNic.nrPhy d2dMulticastCaptureEffect true
par NSA_TwoGnbs.ue[0].cellularNic.nrPhy d2dMulticastCaptureEffectFactor "\"RSRP\""
par NSA_TwoGnbs.ue[0].cellularNic.nrChannelModel[0] typename "\"simu5g.stack.phy.ChannelModel.NRChannelModel_3GPP38_901\""
par NSA_TwoGnbs.ue[0].cellularNic.nrChannelModel[0] componentCarrierIndex 0
par NSA_TwoGnbs.ue[0].cellularNic.nrChannelModel[0] shadowing true
par NSA_TwoGnbs.ue[0].cellularNic.nrChannelModel[0] scenario "\"URBAN_MACROCELL\""
par NSA_TwoGnbs.ue[0].cellularNic.nrChannelModel[0] nodeb_height 25
par NSA_TwoGnbs.ue[0].cellularNic.nrChannelModel[0] building_height 20
par NSA_TwoGnbs.ue[0].cellularNic.nrChannelModel[0] inside_building false
par NSA_TwoGnbs.ue[0].cellularNic.nrChannelModel[0] street_wide 20
par NSA_TwoGnbs.ue[0].cellularNic.nrChannelModel[0] ue_height 1.5
par NSA_TwoGnbs.ue[0].cellularNic.nrChannelModel[0] tolerateMaxDistViolation false
par NSA_TwoGnbs.ue[0].cellularNic.nrChannelModel[0] useTorus false
par NSA_TwoGnbs.ue[0].cellularNic.nrChannelModel[0] correlation_distance 50
par NSA_TwoGnbs.ue[0].cellularNic.nrChannelModel[0] targetBler 0.01
par NSA_TwoGnbs.ue[0].cellularNic.nrChannelModel[0] harqReduction 0.2
par NSA_TwoGnbs.ue[0].cellularNic.nrChannelModel[0] lambdaMinTh 0.02
par NSA_TwoGnbs.ue[0].cellularNic.nrChannelModel[0] lambdaMaxTh 0.2
par NSA_TwoGnbs.ue[0].cellularNic.nrChannelModel[0] lambdaRatioTh 20
par NSA_TwoGnbs.ue[0].cellularNic.nrChannelModel[0] antennaGainUe 0
par NSA_TwoGnbs.ue[0].cellularNic.nrChannelModel[0] antennGainEnB 18
par NSA_TwoGnbs.ue[0].cellularNic.nrChannelModel[0] antennGainMicro 5
par NSA_TwoGnbs.ue[0].cellularNic.nrChannelModel[0] thermalNoise -104.5
par NSA_TwoGnbs.ue[0].cellularNic.nrChannelModel[0] ue_noise_figure 7
par NSA_TwoGnbs.ue[0].cellularNic.nrChannelModel[0] bs_noise_figure 5
par NSA_TwoGnbs.ue[0].cellularNic.nrChannelModel[0] cable_loss 2
par NSA_TwoGnbs.ue[0].cellularNic.nrChannelModel[0] dynamic_los false
par NSA_TwoGnbs.ue[0].cellularNic.nrChannelModel[0] fixed_los false
par NSA_TwoGnbs.ue[0].cellularNic.nrChannelModel[0] fading true
par NSA_TwoGnbs.ue[0].cellularNic.nrChannelModel[0] fading_type "\"JAKES\""
par NSA_TwoGnbs.ue[0].cellularNic.nrChannelModel[0] fading_paths 6
par NSA_TwoGnbs.ue[0].cellularNic.nrChannelModel[0] delay_rms 3.63e-07
par NSA_TwoGnbs.ue[0].cellularNic.nrChannelModel[0] bgCell_interference true
par NSA_TwoGnbs.ue[0].cellularNic.nrChannelModel[0] extCell_interference true
par NSA_TwoGnbs.ue[0].cellularNic.nrChannelModel[0] downlink_interference false
par NSA_TwoGnbs.ue[0].cellularNic.nrChannelModel[0] uplink_interference false
par NSA_TwoGnbs.ue[0].cellularNic.nrChannelModel[0] d2d_interference true
par NSA_TwoGnbs.ue[0].cellularNic.nrChannelModel[0] enable_extCell_los true
par NSA_TwoGnbs.ue[0].cellularNic.nrChannelModel[0] useRsrqFromLog false
par NSA_TwoGnbs.ue[0].cellularNic.nrChannelModel[0] rsrqShift 22
par NSA_TwoGnbs.ue[0].cellularNic.nrChannelModel[0] rsrqScale 1
par NSA_TwoGnbs.ue[0].cellularNic.nrChannelModel[0] collectSinrStatistics true
par NSA_TwoGnbs.ue[0].cellularNic.nrChannelModel[0] useBuildingPenetrationLossHighLossModel false
par NSA_TwoGnbs.ue[0].cellularNic.nrDlFbGen typename "\"simu5g.stack.phy.feedback.LteDlFeedbackGenerator\""
par NSA_TwoGnbs.ue[0].cellularNic.nrDlFbGen feedbackType "\"ALLBANDS\""
par NSA_TwoGnbs.ue[0].cellularNic.nrDlFbGen rbAllocationType "\"localized\""
par NSA_TwoGnbs.ue[0].cellularNic.nrDlFbGen fbPeriod 6
par NSA_TwoGnbs.ue[0].cellularNic.nrDlFbGen fbDelay 1
par NSA_TwoGnbs.ue[0].cellularNic.nrDlFbGen usePeriodic true
par NSA_TwoGnbs.ue[0].cellularNic.nrDlFbGen initialTxMode "\"SINGLE_ANTENNA_PORT0\""
par NSA_TwoGnbs.ue[0].cellularNic.nrDlFbGen feedbackGeneratorType "\"IDEAL\""
par NSA_TwoGnbs.ue[0].cellularNic typename "\"simu5g.stack.NRNicUe\""
par NSA_TwoGnbs.ue[0].cellularNic displayStringTextFormat "\"%a (%i)\\n%m\""
par NSA_TwoGnbs.ue[0].cellularNic recordPcap false
par NSA_TwoGnbs.ue[0].cellularNic numPcapRecorders 0
par NSA_TwoGnbs.ue[0].cellularNic isWireless true
par NSA_TwoGnbs.ue[0].cellularNic interfaceTableModule "\"NSA_TwoGnbs.ue[0].interfaceTable\""
par NSA_TwoGnbs.ue[0].cellularNic routingTableModule "\"^.ipv4.routingTable\""
par NSA_TwoGnbs.ue[0].cellularNic LtePdcpRrcType "\"NRPdcpRrcUe\""
par NSA_TwoGnbs.ue[0].cellularNic LteMacType "\"LteMacUeD2D\""
par NSA_TwoGnbs.ue[0].cellularNic PacketFlowManagerType "\"PacketFlowManagerUe\""
par NSA_TwoGnbs.ue[0].cellularNic hasRNISupport false
par NSA_TwoGnbs.ue[0].cellularNic LtePhyType "\"NRPhyUe\""
par NSA_TwoGnbs.ue[0].cellularNic nodeType "\"UE\""
par NSA_TwoGnbs.ue[0].cellularNic processingDelayIn 0s
attr unit s
par NSA_TwoGnbs.ue[0].cellularNic processingDelayOut 0s
attr unit s
par NSA_TwoGnbs.ue[0].cellularNic LteChannelModelType "\"LteRealisticChannelModel\""
par NSA_TwoGnbs.ue[0].cellularNic d2dCapable true
par NSA_TwoGnbs.ue[0].cellularNic dualConnectivityEnabled true
par NSA_TwoGnbs.ue[0].cellularNic numCarriers 1
par NSA_TwoGnbs.ue[0].cellularNic address "\"0A-AA-00-00-00-04\""
attr mutable ""
par NSA_TwoGnbs.ue[0].cellularNic d2dInitialMode false
par NSA_TwoGnbs.ue[0].cellularNic NRMacType "\"NRMacUe\""
par NSA_TwoGnbs.ue[0].cellularNic NRPhyType "\"NRPhyUe\""
par NSA_TwoGnbs.ue[0].cellularNic NRChannelModelType "\"NRChannelModel_3GPP38_901\""
par NSA_TwoGnbs.ue[0].cellularNic NRPacketFlowManagerType "\"NRPacketFlowManagerUe\""
par NSA_TwoGnbs.ue[0].cellularNic numNRCarriers 1
par NSA_TwoGnbs.ue[0].encap typename "\"inet.linklayer.ethernet.basic.EthernetEncapsulation\""
par NSA_TwoGnbs.ue[0].encap registerProtocol true
par NSA_TwoGnbs.ue[0].encap interfaceTableModule "\"NSA_TwoGnbs.ue[0].interfaceTable\""
par NSA_TwoGnbs.ue[0].encap fcsMode "\"declared\""
attr enum declared,computed
par NSA_TwoGnbs.ue[0].encap stopOperationExtraTime -1s
attr unit s
par NSA_TwoGnbs.ue[0].encap stopOperationTimeout 2s
attr unit s
par NSA_TwoGnbs.ue[0].ipv4.transportIn.channel typename "\"ned.IdealChannel\""
par NSA_TwoGnbs.ue[0].ipv4.up.out[0].channel typename "\"ned.IdealChannel\""
par NSA_TwoGnbs.ue[0].ipv4.lp.out[2].channel typename "\"ned.IdealChannel\""
par NSA_TwoGnbs.ue[0].ipv4.ifIn.channel typename "\"ned.IdealChannel\""
par NSA_TwoGnbs.ue[0].ipv4.configurator typename "\"inet.networklayer.configurator.ipv4.Ipv4NodeConfigurator\""
par NSA_TwoGnbs.ue[0].ipv4.configurator interfaceTableModule "\"NSA_TwoGnbs.ue[0].interfaceTable\""
par NSA_TwoGnbs.ue[0].ipv4.configurator routingTableModule "\"NSA_TwoGnbs.ue[0].ipv4.routingTable\""
par NSA_TwoGnbs.ue[0].ipv4.configurator networkConfiguratorModule "\"configurator\""
par NSA_TwoGnbs.ue[0].ipv4.configurator configureRoutingTable true
par NSA_TwoGnbs.ue[0].ipv4.routingTable typename "\"inet.networklayer.ipv4.Ipv4RoutingTable\""
par NSA_TwoGnbs.ue[0].ipv4.routingTable interfaceTableModule "\"NSA_TwoGnbs.ue[0].interfaceTable\""
par NSA_TwoGnbs.ue[0].ipv4.routingTable routerId "\"auto\""
par NSA_TwoGnbs.ue[0].ipv4.routingTable netmaskRoutes "\"*\""
par NSA_TwoGnbs.ue[0].ipv4.routingTable forwarding false
par NSA_TwoGnbs.ue[0].ipv4.routingTable multicastForwarding false
par NSA_TwoGnbs.ue[0].ipv4.routingTable useAdminDist false
par NSA_TwoGnbs.ue[0].ipv4.routingTable routingFile "\"\""
par NSA_TwoGnbs.ue[0].ipv4.natTable typename "\"inet.networklayer.ipv4.Ipv4NatTable\""
par NSA_TwoGnbs.ue[0].ipv4.natTable networkProtocolModule "\"^.ip\""
par NSA_TwoGnbs.ue[0].ipv4.natTable config "<config/> at content:1"
par NSA_TwoGnbs.ue[0].ipv4.up typename "\"inet.common.MessageDispatcher\""
par NSA_TwoGnbs.ue[0].ipv4.up displayStringTextFormat "\"processed %p pk (%l)\""
par NSA_TwoGnbs.ue[0].ipv4.up forwardServiceRegistration true
par NSA_TwoGnbs.ue[0].ipv4.up forwardProtocolRegistration true
par NSA_TwoGnbs.ue[0].ipv4.igmp typename "\"inet.networklayer.ipv4.Igmpv2\""
par NSA_TwoGnbs.ue[0].ipv4.igmp interfaceTableModule "\"NSA_TwoGnbs.ue[0].interfaceTable\""
par NSA_TwoGnbs.ue[0].ipv4.igmp routingTableModule "\"NSA_TwoGnbs.ue[0].ipv4.routingTable\""
par NSA_TwoGnbs.ue[0].ipv4.igmp crcMode "\"declared\""
attr enum declared,computed
par NSA_TwoGnbs.ue[0].ipv4.igmp enabled true
par NSA_TwoGnbs.ue[0].ipv4.igmp robustnessVariable 2
par NSA_TwoGnbs.ue[0].ipv4.igmp queryInterval 125s
attr unit s
par NSA_TwoGnbs.ue[0].ipv4.igmp queryResponseInterval 10s
attr unit s
par NSA_TwoGnbs.ue[0].ipv4.igmp groupMembershipInterval 260s
attr unit s
par NSA_TwoGnbs.ue[0].ipv4.igmp otherQuerierPresentInterval 255s
attr unit s
par NSA_TwoGnbs.ue[0].ipv4.igmp startupQueryInterval 31.25s
attr unit s
par NSA_TwoGnbs.ue[0].ipv4.igmp startupQueryCount 2
par NSA_TwoGnbs.ue[0].ipv4.igmp lastMemberQueryInterval 1s
attr unit s
par NSA_TwoGnbs.ue[0].ipv4.igmp lastMemberQueryCount 2
par NSA_TwoGnbs.ue[0].ipv4.igmp unsolicitedReportInterval 10s
attr unit s
par NSA_TwoGnbs.ue[0].ipv4.icmp typename "\"inet.networklayer.ipv4.Icmp\""
par NSA_TwoGnbs.ue[0].ipv4.icmp interfaceTableModule "\"NSA_TwoGnbs.ue[0].interfaceTable\""
par NSA_TwoGnbs.ue[0].ipv4.icmp routingTableModule "\"NSA_TwoGnbs.ue[0].ipv4.routingTable\""
par NSA_TwoGnbs.ue[0].ipv4.icmp crcMode "\"declared\""
attr enum declared,computed
attr mutable ""
par NSA_TwoGnbs.ue[0].ipv4.icmp quoteLength 8B
attr mutable ""
attr unit B
par NSA_TwoGnbs.ue[0].ipv4.mp typename "\"inet.common.MessageDispatcher\""
par NSA_TwoGnbs.ue[0].ipv4.mp displayStringTextFormat "\"processed %p pk (%l)\""
par NSA_TwoGnbs.ue[0].ipv4.mp forwardServiceRegistration true
par NSA_TwoGnbs.ue[0].ipv4.mp forwardProtocolRegistration true
par NSA_TwoGnbs.ue[0].ipv4.ip typename "\"inet.networklayer.ipv4.Ipv4\""
par NSA_TwoGnbs.ue[0].ipv4.ip interfaceTableModule "\"NSA_TwoGnbs.ue[0].interfaceTable\""
par NSA_TwoGnbs.ue[0].ipv4.ip routingTableModule "\"NSA_TwoGnbs.ue[0].ipv4.routingTable\""
par NSA_TwoGnbs.ue[0].ipv4.ip arpModule "\"NSA_TwoGnbs.ue[0].ipv4.arp\""
par NSA_TwoGnbs.ue[0].ipv4.ip icmpModule "\"NSA_TwoGnbs.ue[0].ipv4.icmp\""
par NSA_TwoGnbs.ue[0].ipv4.ip crcMode "\"declared\""
attr enum declared,computed
par NSA_TwoGnbs.ue[0].ipv4.ip timeToLive 32
par NSA_TwoGnbs.ue[0].ipv4.ip multicastTimeToLive 32
par NSA_TwoGnbs.ue[0].ipv4.ip fragmentTimeout 60s
attr unit s
par NSA_TwoGnbs.ue[0].ipv4.ip limitedBroadcast false
par NSA_TwoGnbs.ue[0].ipv4.ip directBroadcastInterfaces "\"\""
par NSA_TwoGnbs.ue[0].ipv4.arp typename "\"inet.networklayer.arp.ipv4.Arp\""
par NSA_TwoGnbs.ue[0].ipv4.arp interfaceTableModule "\"NSA_TwoGnbs.ue[0].interfaceTable\""
par NSA_TwoGnbs.ue[0].ipv4.arp routingTableModule "\"NSA_TwoGnbs.ue[0].ipv4.routingTable\""
par NSA_TwoGnbs.ue[0].ipv4.arp retryTimeout 1s
attr unit s
par NSA_TwoGnbs.ue[0].ipv4.arp retryCount 3
par NSA_TwoGnbs.ue[0].ipv4.arp cacheTimeout 120s
attr unit s
par NSA_TwoGnbs.ue[0].ipv4.arp proxyArpInterfaces "\"*\""
par NSA_TwoGnbs.ue[0].ipv4.lp typename "\"inet.common.MessageDispatcher\""
par NSA_TwoGnbs.ue[0].ipv4.lp displayStringTextFormat "\"processed %p pk (%l)\""
par NSA_TwoGnbs.ue[0].ipv4.lp forwardServiceRegistration true
par NSA_TwoGnbs.ue[0].ipv4.lp forwardProtocolRegistration true
par NSA_TwoGnbs.ue[0].ipv4 typename "\"inet.networklayer.ipv4.Ipv4NetworkLayer\""
par NSA_TwoGnbs.ue[0].ipv4 forwarding false
par NSA_TwoGnbs.ue[0].ipv4 multicastForwarding false
par NSA_TwoGnbs.ue[0].ipv4 interfaceTableModule "\"NSA_TwoGnbs.ue[0].interfaceTable\""
par NSA_TwoGnbs.ue[0].ipv4 displayStringTextFormat "\"%i\""
par NSA_TwoGnbs.ue[0].udp typename "\"inet.transportlayer.udp.Udp\""
par NSA_TwoGnbs.ue[0].udp interfaceTableModule "\"NSA_TwoGnbs.ue[0].interfaceTable\""
par NSA_TwoGnbs.ue[0].udp icmpModule "\"^.ipv4.icmp\""
par NSA_TwoGnbs.ue[0].udp icmpv6Module "\"^.ipv6.icmpv6\""
par NSA_TwoGnbs.ue[0].udp crcMode "\"declared\""
attr enum disabled,declared,computed
par NSA_TwoGnbs.ue[0].udp defaultMulticastLoop true
par NSA_TwoGnbs.ue[0].tcp typename "\"inet.transportlayer.tcp.Tcp\""
par NSA_TwoGnbs.ue[0].tcp crcMode "\"declared\""
attr enum declared,computed
par NSA_TwoGnbs.ue[0].tcp advertisedWindow 7504
par NSA_TwoGnbs.ue[0].tcp delayedAcksEnabled false
par NSA_TwoGnbs.ue[0].tcp nagleEnabled true
par NSA_TwoGnbs.ue[0].tcp limitedTransmitEnabled false
par NSA_TwoGnbs.ue[0].tcp increasedIWEnabled false
par NSA_TwoGnbs.ue[0].tcp sackSupport false
par NSA_TwoGnbs.ue[0].tcp windowScalingSupport false
par NSA_TwoGnbs.ue[0].tcp windowScalingFactor -1
par NSA_TwoGnbs.ue[0].tcp timestampSupport false
par NSA_TwoGnbs.ue[0].tcp mss 536
par NSA_TwoGnbs.ue[0].tcp msl 120s
attr unit s
par NSA_TwoGnbs.ue[0].tcp tcpAlgorithmClass "\"TcpReno\""
attr enum TcpVegas,TcpWestwood,TcpNewReno,TcpReno,TcpTahoe,TcpNoCongestionControl
par NSA_TwoGnbs.ue[0].tcp useDataNotification false
par NSA_TwoGnbs.ue[0].tcp dupthresh 3
par NSA_TwoGnbs.ue[0].tcp initialSsthresh 4294967295
par NSA_TwoGnbs.ue[0].tcp stopOperationExtraTime 0s
attr unit s
par NSA_TwoGnbs.ue[0].tcp stopOperationTimeout 2s
attr unit s
par NSA_TwoGnbs.ue[0].tcp ecnWillingness false
par NSA_TwoGnbs.ue[0].tcp dctcpGamma 0.0625
par NSA_TwoGnbs.ue[0].app[0] typename "\"simu5g.apps.voip.VoIPReceiver\""
par NSA_TwoGnbs.ue[0].app[0] localPort 3000
par NSA_TwoGnbs.ue[0].app[0] emodel_Ie_ 5
par NSA_TwoGnbs.ue[0].app[0] emodel_Bpl_ 10
par NSA_TwoGnbs.ue[0].app[0] emodel_A_ 5
par NSA_TwoGnbs.ue[0].app[0] emodel_Ro_ 93.2
par NSA_TwoGnbs.ue[0].app[0] playout_delay 0s
attr unit s
par NSA_TwoGnbs.ue[0].app[0] dim_buffer 20
par NSA_TwoGnbs.ue[0].app[0] sampling_time 0.02s
attr unit s
par NSA_TwoGnbs.ue[0].at typename "\"inet.common.MessageDispatcher\""
par NSA_TwoGnbs.ue[0].at displayStringTextFormat "\"processed %p pk (%l)\""
par NSA_TwoGnbs.ue[0].at forwardServiceRegistration true
par NSA_TwoGnbs.ue[0].at forwardProtocolRegistration true
par NSA_TwoGnbs.ue[0].tn typename "\"inet.common.MessageDispatcher\""
par NSA_TwoGnbs.ue[0].tn displayStringTextFormat "\"processed %p pk (%l)\""
par NSA_TwoGnbs.ue[0].tn forwardServiceRegistration true
par NSA_TwoGnbs.ue[0].tn forwardProtocolRegistration true
par NSA_TwoGnbs.ue[0].nl typename "\"inet.common.MessageDispatcher\""
par NSA_TwoGnbs.ue[0].nl displayStringTextFormat "\"processed %p pk (%l)\""
par NSA_TwoGnbs.ue[0].nl forwardServiceRegistration true
par NSA_TwoGnbs.ue[0].nl forwardProtocolRegistration true
par NSA_TwoGnbs.ue[0] typename "\"simu5g.nodes.NR.NRUe\""
par NSA_TwoGnbs.ue[0] numApps 1
par NSA_TwoGnbs.ue[0] hasUdp true
par NSA_TwoGnbs.ue[0] hasTcp true
par NSA_TwoGnbs.ue[0] hasSctp false
par NSA_TwoGnbs.ue[0] nodeType "\"UE\""
par NSA_TwoGnbs.ue[0] masterId 1
attr mutable ""
par NSA_TwoGnbs.ue[0] macNodeId 1025
attr mutable ""
par NSA_TwoGnbs.ue[0] macCellId 1
attr mutable ""
par NSA_TwoGnbs.ue[0] nicType "\"NRNicUe\""
par NSA_TwoGnbs.ue[0] hasIpv4 true
par NSA_TwoGnbs.ue[0] hasIpv6 false
par NSA_TwoGnbs.ue[0] numEthInterfaces 0
par NSA_TwoGnbs.ue[0] extHostAddress "\"\""
par NSA_TwoGnbs.ue[0] numLoInterfaces 1
par NSA_TwoGnbs.ue[0] numPcapRecorders 0
par NSA_TwoGnbs.ue[0] hasRNISupport false
par NSA_TwoGnbs.ue[0] nrMasterId 3
attr mutable ""
par NSA_TwoGnbs.ue[0] nrMacNodeId 2049
attr mutable ""
par NSA_TwoGnbs.ue[0] nrMacCellId 2
attr mutable ""
par NSA_TwoGnbs typename "\"simu5g.simulations.Custom.handover.NSA_TwoGnbs\""
par NSA_TwoGnbs numUe 1
par NSA_TwoGnbs numBgCells 0

