version 3
run General-0-20230329-18:57:39-239290
attr configname General
attr datetime 20230329-18:57:39
attr datetimef 20230329-185739
attr experiment General
attr inifile omnetpp.ini
attr iterationvars ""
attr iterationvarsd ""
attr iterationvarsf ""
attr measurement ""
attr network NSA_TwoGnbs
attr processid 239290
attr repetition 0
attr replication #0
attr resultdir results
attr runnumber 0
attr seedset 0
config image-path ../../../images:../../../../inet4.4/images
config network NSA_TwoGnbs
config description "Dual connectivity, secondary only with handover, Voice-over-IP (downlink)"
config image-path ../../../images
config output-scalar-file-append false
config sim-time-limit 20s
config seed-set 0
config output-scalar-file results/General/-0.sca
config output-vector-file results/General/-0.vec
config **.sctp.**.scalar-recording false
config **.sctp.**.vector-recording false
config **.routingRecorder.enabled false
config **.measuredSinrDl:vector.vector-recording true
config **.measuredSinrUl:vector.vector-recording true
config **.rsrp:vector.vector-recording true
config **.scalar-recording false
config **.vector-recording false
config **.mobility.constraintAreaMaxX 1000m
config **.mobility.constraintAreaMaxY 600m
config **.mobility.constraintAreaMinX 0m
config **.mobility.constraintAreaMinY 0m
config **.mobility.constraintAreaMinZ 0m
config **.mobility.constraintAreaMaxZ 0m
config **.mobility.initFromDisplayString false
config *.visualizer.*.mobilityVisualizer.displayMobility true
config *.visualizer.*.mobilityVisualizer.displayPositions true
config *.visualizer.*.mobilityVisualizer.displayOrientations true
config *.visualizer.*.mobilityVisualizer.displayVelocities true
config *.visualizer.*.mobilityVisualizer.displayMovementTrails true
config **.numBands 50
config **.ueTxPower 26
config **.eNodeBTxPower 40
config **.targetBler 0.01
config **.blerShift 5
config **.sctp.nagleEnabled false
config **.sctp.enableHeartbeats false
config *.configurator.config "xmldoc(\"./demo.xml\")"
config *.masterEnb.mobility.initialX 525m
config *.masterEnb.mobility.initialY 243m
config *.secondaryGnb1.mobility.initialX 320m
config *.secondaryGnb1.mobility.initialY 326m
config *.secondaryGnb2.mobility.initialX 726m
config *.secondaryGnb2.mobility.initialY 326m
config *.masterEnb.nicType "\"LteNicEnbD2D\""
config *.masterEnb.cellularNic.LtePdcpRrcType "\"NRPdcpRrcEnb\""
config *.secondaryGnb*.masterId 1
config **.dualConnectivityEnabled true
config *.*nb*.numX2Apps 2
config *.*nb*.x2App[*].server.localPort "5000 + ancestorIndex(1)"
config *.masterEnb.x2App[0].client.connectAddress "\"secondaryGnb1%x2ppp0\""
config *.masterEnb.x2App[1].client.connectAddress "\"secondaryGnb2%x2ppp1\""
config *.secondaryGnb1.x2App[0].client.connectAddress "\"masterEnb%x2ppp0\""
config *.secondaryGnb1.x2App[1].client.connectAddress "\"secondaryGnb2%x2ppp1\""
config *.secondaryGnb2.x2App[0].client.connectAddress "\"masterEnb%x2ppp0\""
config *.secondaryGnb2.x2App[1].client.connectAddress "\"secondaryGnb1%x2ppp1\""
config *.numUe 1
config **.dynamicCellAssociation true
config *.ue[0].macCellId 1
config *.ue[0].masterId 1
config *.ue[0].nrMacCellId 2
config *.ue[0].nrMasterId 2
config *.ue[1].macCellId 1
config *.ue[1].masterId 1
config *.ue[1].nrMacCellId 3
config *.ue[1].nrMasterId 3
config *.ue*.mobility.typename LinearMobility
config *.ue*.mobility.speed 10mps
config *.ue[0].mobility.initialX 614m
config *.ue[0].mobility.initialY 471m
config *.secondaryGnb*.cellularNic.phy.enableHandover true
config *.ue*.cellularNic.nrPhy.enableHandover true
config *.ue[*].numApps 1
config *.server.numApps 1
config *.ue[*].app[*].typename VoIPReceiver
config *.ue[*].app[*].localPort 3000+ancestorIndex(0)
config *.server.app[*].typename VoIPSender
config *.server.app[*].PacketSize 40
config *.server.app[*].destAddress "\"ue[0]\""
config *.server.app[*].localPort 3088+ancestorIndex(0)
config *.server.app[*].destPort 3000+ancestorIndex(0)
config *.server.app[*].startTime uniform(0s,0.02s)
config *.server.app[*].tos 10

vector 0 NSA_TwoGnbs.ue[0].cellularNic.channelModel[0] rsrp:vector ETV
attr recordingmode vector
attr source rsrp
attr title "RSRP measured at dynamic cell association"
attr unit dBm
vector 1 NSA_TwoGnbs.ue[0].cellularNic.nrChannelModel[0] rsrp:vector ETV
attr recordingmode vector
attr source rsrp
attr title "RSRP measured at dynamic cell association"
attr unit dBm
vector 2 NSA_TwoGnbs.ue[0].cellularNic.channelModel[0] measuredSinrUl:vector ETV
attr recordingmode vector
attr source measuredSinrUl
attr title "SINR measured at feedback computation, UL"
attr unit dB
vector 3 NSA_TwoGnbs.ue[0].cellularNic.channelModel[0] measuredSinrDl:vector ETV
attr recordingmode vector
attr source measuredSinrDl
attr title "SINR measured at feedback computation, DL"
attr unit dB
vector 4 NSA_TwoGnbs.ue[0].cellularNic.nrChannelModel[0] measuredSinrUl:vector ETV
attr recordingmode vector
attr source measuredSinrUl
attr title "SINR measured at feedback computation, UL"
attr unit dB
vector 5 NSA_TwoGnbs.ue[0].cellularNic.nrChannelModel[0] measuredSinrDl:vector ETV
attr recordingmode vector
attr source measuredSinrDl
attr title "SINR measured at feedback computation, DL"
attr unit dB
0	0	0	-64.100055983214
1	0	0	-71.555810727887
1	0	0	-61.682004993882
1	450	0.018	-71.555810727887
1	450	0.018	-61.682004993882
1	694	0.038	-71.555810727887
1	694	0.038	-61.682004993882
1	935	0.058	-71.555810727887
1	935	0.058	-61.682004993882
1	1175	0.078	-71.555810727887
1	1175	0.078	-61.682004993882
1	1419	0.098	-71.555810727887
1	1419	0.098	-61.682004993882
1	1658	0.118	-72.083924104699
1	1658	0.118	-62.963477018805
1	1898	0.138	-72.476585079833
1	1898	0.138	-62.407163275463
1	2142	0.158	-72.375284580758
1	2142	0.158	-61.806272076312
1	2380	0.178	-71.537108028987
1	2380	0.178	-61.806272076312
1	2620	0.198	-71.537108028987
1	2620	0.198	-61.806272076312
1	2865	0.218	-72.395814577648
1	2865	0.218	-63.790025603841
1	3103	0.238	-72.134353912019
1	3103	0.238	-61.865783127099
1	3343	0.258	-71.528191298941
1	3343	0.258	-61.865783127099
1	3587	0.278	-71.740191185424
1	3587	0.278	-61.183040670109
1	3825	0.298	-71.67194597775
1	3825	0.298	-61.935103062611
1	4066	0.318	-72.107303298196
1	4066	0.318	-62.620686607779
1	4310	0.338	-72.262163849839
1	4310	0.338	-61.956935184347
1	4548	0.358	-71.514585866459
1	4548	0.358	-61.956935184347
1	4788	0.378	-71.514585866459
1	4788	0.378	-61.956935184347
1	5032	0.398	-71.514585866459
1	5032	0.398	-61.956935184347
1	5271	0.418	-72.884395421419
1	5271	0.418	-63.748789846393
1	5511	0.438	-73.660756486281
1	5511	0.438	-62.728665419628
1	5755	0.458	-72.182180135775
1	5755	0.458	-62.728665419628
1	5993	0.478	-72.182180135775
1	5993	0.478	-62.728665419628
1	6233	0.498	-72.182180135775
1	6233	0.498	-62.728665419628
1	6478	0.518	-71.729545113266
1	6478	0.518	-64.288300340964
1	6716	0.538	-72.185219857881
1	6716	0.538	-62.818853750368
1	6956	0.558	-72.16884961795
1	6956	0.558	-62.818853750368
1	7200	0.578	-72.16884961795
1	7200	0.578	-62.818853750368
1	7438	0.598	-72.16884961795
1	7438	0.598	-62.818853750368
1	7679	0.618	-72.64144558473
1	7679	0.618	-63.532810662397
1	7923	0.638	-73.177539715136
1	7923	0.638	-62.908567780458
1	8161	0.658	-72.15565758555
1	8161	0.658	-62.908567780458
1	8401	0.678	-72.15565758555
1	8401	0.678	-62.908567780458
1	8645	0.698	-72.15565758555
1	8645	0.698	-62.908567780458
1	8884	0.718	-73.555129456879
1	8884	0.718	-62.677412445294
1	9124	0.738	-73.336330770758
1	9124	0.738	-62.997812447226
1	9368	0.758	-72.142604717877
1	9368	0.758	-62.997812447226
1	9606	0.778	-72.142604717877
1	9606	0.778	-62.997812447226
1	9846	0.798	-72.142604717877
1	9846	0.798	-62.997812447226
1	10091	0.818	-67.220743917657
1	10091	0.818	-57.046407508119
1	10329	0.838	-66.794444262516
1	10329	0.838	-57.389997577335
1	10569	0.858	-66.433096655159
1	10569	0.858	-57.389997577335
1	10813	0.878	-66.433096655159
1	10813	0.878	-57.389997577335
1	11051	0.898	-66.433096655159
1	11051	0.898	-57.389997577335
1	11292	0.918	-67.105692472021
1	11292	0.918	-57.654816136518
1	11536	0.938	-66.410187863574
1	11536	0.938	-57.478318025813
1	11774	0.958	-66.420324135923
1	11774	0.958	-57.478318025813
1	12014	0.978	-66.420324135923
1	12014	0.978	-57.478318025813
1	12258	0.998	-66.420324135923
1	12258	0.998	-57.478318025813
1	12507	1.018	-63.597651301923
1	12507	1.018	-54.407351546318
1	12747	1.038	-63.248860865637
1	12747	1.038	-54.407351546318
1	12994	1.058	-63.248860865637
1	12994	1.058	-54.407351546318
1	13232	1.078	-63.248860865637
1	13232	1.078	-54.407351546318
1	13472	1.098	-63.248860865637
1	13472	1.098	-54.407351546318
1	13717	1.118	-63.391208804191
1	13717	1.118	-54.68048679108
1	13955	1.138	-63.712832306976
1	13955	1.138	-54.494766630232
1	14195	1.158	-63.236371354223
1	14195	1.158	-54.494766630232
1	14439	1.178	-63.236371354223
1	14439	1.178	-54.494766630232
1	14677	1.198	-63.236371354223
1	14677	1.198	-54.494766630232
1	14918	1.218	-64.389628540912
1	14918	1.218	-56.132233222295
1	15162	1.238	-65.132509957026
1	15162	1.238	-54.581735923529
1	15400	1.258	-63.224024331374
1	15400	1.258	-54.581735923529
1	15640	1.278	-63.224024331374
1	15640	1.278	-54.581735923529
1	15884	1.298	-63.224024331374
1	15884	1.298	-54.581735923529
1	16123	1.318	-61.032495915877
1	16123	1.318	-51.634515237226
1	16363	1.338	-59.842566539993
1	16363	1.338	-51.006859916057
1	16607	1.358	-59.550416434328
1	16607	1.358	-51.006859916057
1	16845	1.378	-59.550416434328
1	16845	1.378	-51.006859916057
1	17085	1.398	-59.550416434328
1	17085	1.398	-51.006859916057
1	17330	1.418	-60.523306067907
1	17330	1.418	-51.36706757673
1	17568	1.438	-59.890313064818
1	17568	1.438	-51.092951066911
1	17808	1.458	-59.538356331766
1	17808	1.458	-51.092951066911
1	18052	1.478	-59.538356331766
1	18052	1.478	-51.092951066911
1	18290	1.498	-59.538356331766
1	18290	1.498	-51.092951066911
1	18531	1.518	-60.427882393238
1	18531	1.518	-51.051676941815
1	18775	1.538	-60.34038252934
1	18775	1.538	-51.178609732216
1	19013	1.558	-59.526440650152
1	19013	1.558	-51.178609732216
1	19253	1.578	-59.526440650152
1	19253	1.578	-51.178609732216
1	19497	1.598	-59.526440650152
1	19497	1.598	-51.178609732216
1	19736	1.618	-59.801383933487
1	19736	1.618	-52.838145880176
1	19976	1.638	-60.052798899756
1	19976	1.638	-51.26384021547
1	20220	1.658	-59.514670022669
1	20220	1.658	-51.26384021547
1	20458	1.678	-59.514670022669
1	20458	1.678	-51.26384021547
1	20698	1.698	-59.514670022669
1	20698	1.698	-51.26384021547
1	20943	1.718	-51.377602153938
1	20943	1.718	-43.852710798747
1	21181	1.738	-50.678146346229
1	21181	1.738	-43.209788813254
1	21421	1.758	-51.36418713355
1	21421	1.758	-43.209788813254
1	21665	1.778	-51.36418713355
1	21665	1.778	-43.209788813254
1	21903	1.798	-51.36418713355
1	21903	1.798	-43.209788813254
1	22144	1.818	-51.728704176249
1	22144	1.818	-43.957473496184
1	22388	1.838	-51.075650428228
1	22388	1.838	-43.294175589673
1	22626	1.858	-51.352708491181
1	22626	1.858	-43.294175589673
1	22866	1.878	-51.352708491181
1	22866	1.878	-43.294175589673
1	23110	1.898	-51.352708491181
1	23110	1.898	-43.294175589673
1	23349	1.918	-52.437379705492
1	23349	1.918	-43.912978701764
1	23589	1.938	-52.415779380668
1	23589	1.938	-43.378146717775
1	23833	1.958	-51.341376768193
1	23833	1.958	-43.378146717775
1	24071	1.978	-51.341376768193
1	24071	1.978	-43.378146717775
1	24311	1.998	-51.341376768193
1	24311	1.998	-43.378146717775
1	24566	2.018	-58.653701908516
1	24566	2.018	-49.168388011071
1	24804	2.038	-57.036874331712
1	24804	2.038	-49.168388011071
1	25047	2.058	-57.036874331712
1	25047	2.058	-49.168388011071
1	25291	2.078	-57.036874331712
1	25291	2.078	-49.168388011071
1	25529	2.098	-57.036874331712
1	25529	2.098	-49.168388011071
1	25770	2.118	-57.407496489293
1	25770	2.118	-49.495169016728
1	26014	2.138	-57.610995894123
1	26014	2.138	-49.251539952805
1	26252	2.158	-57.025838271359
1	26252	2.158	-49.251539952805
1	38430	3.454	-64.879571833232
1	38430	3.454	-59.84022273459
1	38670	3.474	-64.691916674343
1	38670	3.474	-58.632837663661
1	38914	3.494	-65.23180783722
1	38914	3.494	-58.632837663661
1	39153	3.514	-64.672655413197
1	39153	3.514	-58.874730039536
1	39393	3.534	-65.237055294844
1	39393	3.534	-58.710672608337
1	39637	3.554	-65.222905423803
1	39637	3.554	-58.710672608337
1	39875	3.574	-65.222905423803
1	39875	3.574	-58.710672608337
1	40115	3.594	-65.222905423803
1	40115	3.594	-58.710672608337
1	40360	3.614	-66.464008622191
1	40360	3.614	-59.148380887202
1	40598	3.634	-66.852820253583
1	40598	3.634	-58.788153569637
1	40838	3.654	-65.214159407887
1	40838	3.654	-58.788153569637
1	41082	3.674	-65.214159407887
1	41082	3.674	-58.788153569637
1	41320	3.694	-65.214159407887
1	41320	3.694	-58.788153569637
1	41561	3.714	-58.425770112572
1	41561	3.714	-53.026511949549
1	41805	3.734	-59.01274511769
1	41805	3.734	-52.455848998241
1	42043	3.754	-58.796135540708
1	42043	3.754	-52.455848998241
1	42283	3.774	-58.796135540708
1	42283	3.774	-52.455848998241
1	42527	3.794	-58.796135540708
1	42527	3.794	-52.455848998241
1	42766	3.814	-59.611314634408
1	42766	3.814	-52.504523907906
1	43006	3.834	-58.99450712853
1	43006	3.834	-52.532631529103
1	43250	3.854	-58.787703792931
1	43250	3.854	-52.532631529103
1	43488	3.874	-58.787703792931
1	43488	3.874	-52.532631529103
1	43728	3.894	-58.787703792931
1	43728	3.894	-52.532631529103
1	43973	3.914	-58.51707190186
1	43973	3.914	-53.249176593406
1	44211	3.934	-60.080587954424
1	44211	3.934	-52.609069527976
1	44451	3.954	-58.77942990032
1	44451	3.954	-52.609069527976
1	44695	3.974	-58.77942990032
1	44695	3.974	-52.609069527976
1	44933	3.994	-58.77942990032
1	44933	3.994	-52.609069527976
1	45184	4.014	-64.779753136762
1	45184	4.014	-58.636935543571
1	45428	4.034	-64.723083815077
1	45428	4.034	-58.636935543571
1	45669	4.054	-64.723083815077
1	45669	4.054	-58.636935543571
1	45909	4.074	-64.723083815077
1	45909	4.074	-58.636935543571
1	48118	4.304	-64.508487557596
1	48118	4.304	-59.695703971771
1	48356	4.324	-63.746098035293
1	48356	4.324	-58.863206416164
1	48596	4.344	-64.699691649078
1	48596	4.344	-58.863206416164
1	48840	4.364	-64.699691649078
1	48840	4.364	-58.863206416164
1	49078	4.384	-64.699691649078
1	49078	4.384	-58.863206416164
1	49319	4.404	-65.635763958479
1	49319	4.404	-59.859939233447
1	49563	4.424	-54.643933749372
1	49563	4.424	-48.786865638892
1	49801	4.444	-54.54111260982
1	49801	4.444	-48.786865638892
1	50041	4.464	-54.54111260982
1	50041	4.464	-48.786865638892
1	50285	4.484	-54.54111260982
1	50285	4.484	-48.786865638892
1	50524	4.504	-54.604738511315
1	50524	4.504	-49.665062054779
1	50764	4.524	-56.237693553122
1	50764	4.524	-48.861299451299
1	51008	4.544	-54.533795442574
1	51008	4.544	-48.861299451299
1	51246	4.564	-54.533795442574
1	51246	4.564	-48.861299451299
1	51486	4.584	-54.533795442574
1	51486	4.584	-48.861299451299
1	51731	4.604	-54.973073781286
1	51731	4.604	-49.770154102539
1	51969	4.624	-54.07734316058
1	51969	4.624	-48.935409370643
1	52209	4.644	-54.526639252434
1	52209	4.644	-48.935409370643
1	52453	4.664	-54.526639252434
1	52453	4.664	-48.935409370643
1	52691	4.684	-54.526639252434
1	52691	4.684	-48.935409370643
1	52932	4.704	-55.376820350552
1	52932	4.704	-50.532653077145
1	53176	4.724	-61.594821404691
1	53176	4.724	-55.518670798574
1	53414	4.744	-61.029117057017
1	53414	4.744	-55.518670798574
1	53654	4.764	-61.029117057017
1	53654	4.764	-55.518670798574
1	53898	4.784	-61.029117057017
1	53898	4.784	-55.518670798574
1	54137	4.804	-61.785020331476
1	54137	4.804	-56.626853001809
1	54377	4.824	-60.814545322882
1	54377	4.824	-55.592141286512
1	54621	4.844	-61.022284051131
1	54621	4.844	-55.592141286512
1	54859	4.864	-61.022284051131
1	54859	4.864	-55.592141286512
1	55099	4.884	-61.022284051131
1	55099	4.884	-55.592141286512
1	55344	4.904	-62.050307901966
1	55344	4.904	-57.288285804015
1	55582	4.924	-62.432895474193
1	55582	4.924	-55.665296164827
1	55822	4.944	-61.015613235272
1	55822	4.944	-55.665296164827
1	56066	4.964	-61.015613235272
1	56066	4.964	-55.665296164827
1	56304	4.984	-61.015613235272
1	56304	4.984	-55.665296164827
1	56555	5.004	-60.368023189368
1	56555	5.004	-55.738138124389
1	56799	5.024	-61.009104996501
1	56799	5.024	-55.738138124389
1	57037	5.044	-61.009104996501
1	57037	5.044	-55.738138124389
1	57280	5.064	-61.009104996501
1	57280	5.064	-55.738138124389
1	57524	5.084	-61.009104996501
1	57524	5.084	-55.738138124389
1	57763	5.104	-63.341342007985
1	57763	5.104	-61.954839360183
1	58003	5.124	-64.568217487595
1	58003	5.124	-58.602784359878
1	58247	5.144	-63.794874251091
1	58247	5.144	-58.602784359878
1	58485	5.164	-63.794874251091
1	58485	5.164	-58.602784359878
1	58725	5.184	-63.794874251091
1	58725	5.184	-58.602784359878
1	58970	5.204	-63.590294608246
1	58970	5.204	-58.511697844909
1	59208	5.224	-64.747963244392
1	59208	5.224	-58.675008418517
1	59448	5.244	-63.788692292618
1	59448	5.244	-58.675008418517
1	59692	5.264	-63.788692292618
1	59692	5.264	-58.675008418517
1	59930	5.284	-63.788692292618
1	59930	5.284	-58.675008418517
1	60171	5.304	-65.248985379228
1	60171	5.304	-58.206809327789
1	60415	5.324	-64.41901325118
1	60415	5.324	-58.746927428393
1	60653	5.344	-63.78267401965
1	60653	5.344	-58.746927428393
1	60893	5.364	-63.78267401965
1	60893	5.364	-58.746927428393
1	61137	5.384	-63.78267401965
1	61137	5.384	-58.746927428393
1	61376	5.404	-63.27713081868
1	61376	5.404	-59.386737775739
1	61616	5.424	-64.319351213119
1	61616	5.424	-58.818543947166
1	61860	5.444	-63.776819783837
1	61860	5.444	-58.818543947166
1	62098	5.464	-63.776819783837
1	62098	5.464	-58.818543947166
1	62338	5.484	-63.776819783837
1	62338	5.484	-58.818543947166
1	62583	5.504	-52.485414745633
1	62583	5.504	-46.608385900619
1	62821	5.524	-51.192149618221
1	62821	5.524	-46.768714630944
1	63061	5.544	-51.649984058181
1	63061	5.544	-46.768714630944
1	63305	5.564	-51.649984058181
1	63305	5.564	-46.768714630944
1	63543	5.584	-51.649984058181
1	63543	5.584	-46.768714630944
1	63784	5.604	-51.988542837534
1	63784	5.604	-46.434956410868
1	64028	5.624	-52.182630121838
1	64028	5.624	-46.839733713308
1	64266	5.644	-51.644458915464
1	64266	5.644	-46.839733713308
1	64506	5.664	-51.644458915464
1	64506	5.664	-46.839733713308
1	64750	5.684	-51.644458915464
1	64750	5.684	-46.839733713308
1	64989	5.704	-51.934763456601
1	64989	5.704	-47.023610042473
1	65229	5.724	-52.829315269042
1	65229	5.724	-46.910457788084
1	65473	5.744	-51.639098810443
1	65473	5.744	-46.910457788084
1	65711	5.764	-51.639098810443
1	65711	5.764	-46.910457788084
1	65951	5.784	-51.639098810443
1	65951	5.784	-46.910457788084
1	66196	5.804	-52.528024681183
1	66196	5.804	-48.083110669427
1	66434	5.824	-51.88703864475
1	66434	5.824	-46.980889288342
1	66674	5.844	-51.633904058281
1	66674	5.844	-46.980889288342
1	66918	5.864	-51.633904058281
1	66918	5.864	-46.980889288342
1	67156	5.884	-51.633904058281
1	67156	5.884	-46.980889288342
1	67397	5.904	-54.224418271146
1	67397	5.904	-47.153845236828
1	67641	5.924	-58.496687288657
1	67641	5.924	-54.798506307177
1	67879	5.944	-59.37635065477
1	67879	5.944	-54.798506307177
1	68119	5.964	-59.37635065477
1	68119	5.964	-54.798506307177
1	68363	5.984	-59.37635065477
1	68363	5.984	-54.798506307177
1	68612	6.004	-60.760548904463
1	68612	6.004	-54.868359838575
1	68852	6.024	-59.371487516645
1	68852	6.024	-54.868359838575
1	69096	6.044	-59.371487516645
1	69096	6.044	-54.868359838575
1	69337	6.064	-59.371487516645
1	69337	6.064	-54.868359838575
1	69577	6.084	-59.371487516645
1	69577	6.084	-54.868359838575
1	69822	6.104	-58.845307254804
1	69822	6.104	-55.21988179199
1	70060	6.124	-61.070671282321
1	70060	6.124	-54.937927917313
1	70300	6.144	-59.366790620967
1	70300	6.144	-54.937927917313
1	70544	6.164	-59.366790620967
1	70544	6.164	-54.937927917313
1	70782	6.184	-59.366790620967
1	70782	6.184	-54.937927917313
1	71023	6.204	-59.574829013277
1	71023	6.204	-55.362474773675
1	71267	6.224	-67.562677232416
1	71267	6.224	-62.912398265956
1	71505	6.244	-67.26744565158
1	71505	6.244	-62.912398265956
1	71745	6.264	-67.26744565158
1	71745	6.264	-62.912398265956
1	71989	6.284	-67.26744565158
1	71989	6.284	-62.912398265956
1	72228	6.304	-67.873232857287
1	72228	6.304	-63.302965501885
1	79189	7.042	-75.017596628819
1	79189	7.042	-70.308197215651
1	79432	7.062	-74.088670916622
1	79432	7.062	-70.308197215651
1	79676	7.082	-74.088670916622
1	79676	7.082	-70.308197215651
1	79915	7.102	-76.222403561942
1	79915	7.102	-71.059000008132
1	80155	7.122	-76.292091578434
1	80155	7.122	-70.375033695335
1	80399	7.142	-74.085650134239
1	80399	7.142	-70.375033695335
1	80637	7.162	-74.085650134239
1	80637	7.162	-70.375033695335
1	80877	7.182	-74.085650134239
1	80877	7.182	-70.375033695335
1	81122	7.202	-74.935906467154
1	81122	7.202	-71.726278291107
1	81360	7.222	-75.182670223149
1	81360	7.222	-70.441608734254
1	81600	7.242	-74.0827981182
1	81600	7.242	-70.441608734254
1	81844	7.262	-74.0827981182
1	81844	7.262	-70.441608734254
1	82082	7.282	-74.0827981182
1	82082	7.282	-70.441608734254
1	82323	7.302	-74.980452488474
1	82323	7.302	-71.235742190373
1	82567	7.322	-75.140160886351
1	82567	7.322	-70.507924364105
1	82805	7.342	-74.080115039068
1	82805	7.342	-70.507924364105
1	83045	7.362	-74.080115039068
1	83045	7.362	-70.507924364105
1	83289	7.382	-74.080115039068
1	83289	7.382	-70.507924364105
1	89973	8.09	-75.580848332703
1	89973	8.09	-72.215855975539
1	90212	8.11	-69.770507451222
1	90212	8.11	-68.474817355879
1	90452	8.13	-68.851942688701
1	90452	8.13	-66.183470771586
1	90696	8.15	-69.21887318605
1	90696	8.15	-66.183470771586
1	90934	8.17	-69.21887318605
1	90934	8.17	-66.183470771586
1	91174	8.19	-69.21887318605
1	91174	8.19	-66.183470771586
1	91419	8.21	-69.768569349485
1	91419	8.21	-65.784371455485
1	91657	8.23	-69.593097731738
1	91657	8.23	-66.247539380445
1	91897	8.25	-69.21771655795
1	91897	8.25	-66.247539380445
1	92141	8.27	-69.21771655795
1	92141	8.27	-66.247539380445
1	92379	8.29	-69.21771655795
1	92379	8.29	-66.247539380445
1	92620	8.31	-69.467489892504
1	92620	8.31	-66.651645463964
1	92864	8.33	-70.250373307243
1	92864	8.33	-66.311367660641
1	93102	8.35	-69.216730018821
1	93102	8.35	-66.311367660641
1	93342	8.37	-69.216730018821
1	93342	8.37	-66.311367660641
1	93586	8.39	-69.216730018821
1	93586	8.39	-66.311367660641
1	93825	8.41	-71.286990249833
1	93825	8.41	-66.648624057021
1	94065	8.43	-69.380499325756
1	94065	8.43	-66.374957403851
1	94309	8.45	-69.215913628007
1	94309	8.45	-66.374957403851
1	94547	8.47	-69.215913628007
1	94547	8.47	-66.374957403851
1	94787	8.49	-69.215913628007
1	94787	8.49	-66.374957403851
1	95032	8.51	-64.359667349139
1	95032	8.51	-60.445697855058
1	95270	8.53	-63.659038757417
1	95270	8.53	-60.019242896987
1	95510	8.55	-62.796199949772
1	95510	8.55	-60.019242896987
1	95754	8.57	-62.796199949772
1	95754	8.57	-60.019242896987
1	95992	8.59	-62.796199949772
1	95992	8.59	-60.019242896987
1	96233	8.61	-61.755291532983
1	96233	8.61	-60.136354069034
1	96477	8.63	-63.056280954607
1	96477	8.63	-60.082360861911
1	96715	8.65	-62.795723992715
1	96715	8.65	-60.082360861911
1	96955	8.67	-62.795723992715
1	96955	8.67	-60.082360861911
1	97199	8.69	-62.795723992715
1	97199	8.69	-60.082360861911
1	97438	8.71	-63.990641185471
1	97438	8.71	-60.299474271068
1	97678	8.73	-63.200539920826
1	97678	8.73	-60.145245546587
1	97922	8.75	-62.79541830063
1	97922	8.75	-60.145245546587
1	98160	8.77	-62.79541830063
1	98160	8.77	-60.145245546587
1	98400	8.79	-62.79541830063
1	98400	8.79	-60.145245546587
1	98645	8.81	-64.748592086767
1	98645	8.81	-60.327362385595
1	98883	8.83	-63.798945322157
1	98883	8.83	-60.207898664789
1	99123	8.85	-62.795282891916
1	99123	8.85	-60.207898664789
1	99367	8.87	-62.795282891916
1	99367	8.87	-60.207898664789
1	99605	8.89	-62.795282891916
1	99605	8.89	-60.207898664789
1	99846	8.91	-59.646316017879
1	99846	8.91	-58.406724493904
1	100090	8.93	-61.093270545277
1	100090	8.93	-57.435676855391
1	100328	8.95	-59.960672718592
1	100328	8.95	-57.435676855391
1	100568	8.97	-59.960672718592
1	100568	8.97	-57.435676855391
1	100812	8.99	-59.960672718592
1	100812	8.99	-57.435676855391
1	101082	9.01	-59.776271705459
1	101082	9.01	-57.497871907166
1	101322	9.03	-59.960877890825
1	101322	9.03	-57.497871907166
1	101569	9.05	-59.960877890825
1	101569	9.05	-57.497871907166
1	101819	9.07	-59.960877890825
1	101819	9.07	-57.497871907166
1	102059	9.09	-59.960877890825
1	102059	9.09	-57.497871907166
1	102304	9.11	-60.61386447734
1	102304	9.11	-58.499821364607
1	102542	9.13	-60.327207319104
1	102542	9.13	-57.559840422262
1	102782	9.15	-59.96125334013
1	102782	9.15	-57.559840422262
1	103026	9.17	-59.96125334013
1	103026	9.17	-57.559840422262
1	103264	9.19	-59.96125334013
1	103264	9.19	-57.559840422262
1	103505	9.21	-59.550654337942
1	103505	9.21	-59.317280981719
1	103749	9.23	-61.541280363436
1	103749	9.23	-57.62158404099
1	103987	9.25	-59.961799043909
1	103987	9.25	-57.62158404099
1	104227	9.27	-59.961799043909
1	104227	9.27	-57.62158404099
1	104471	9.29	-59.961799043909
1	104471	9.29	-57.62158404099
1	104710	9.31	-61.259505030267
1	104710	9.31	-57.556382309943
1	104950	9.33	-62.909852240669
1	104950	9.33	-58.821228957334
1	105194	9.35	-61.100639540697
1	105194	9.35	-58.821228957334
1	105432	9.37	-61.100639540697
1	105432	9.37	-58.821228957334
1	105672	9.39	-61.100639540697
1	105672	9.39	-58.821228957334
1	105917	9.41	-61.221933051204
1	105917	9.41	-59.43238949399
1	106155	9.43	-60.197594511645
1	106155	9.43	-58.882527633683
1	106395	9.45	-61.101525644653
1	106395	9.45	-58.882527633683
1	106639	9.47	-61.101525644653
1	106639	9.47	-58.882527633683
1	106877	9.49	-61.101525644653
1	106877	9.49	-58.882527633683
1	107118	9.51	-61.606277894417
1	107118	9.51	-59.137648270296
1	107362	9.53	-61.043441223333
1	107362	9.53	-58.943606229358
1	107600	9.55	-61.102581873847
1	107600	9.55	-58.943606229358
1	107840	9.57	-61.102581873847
1	107840	9.57	-58.943606229358
1	108084	9.59	-61.102581873847
1	108084	9.59	-58.943606229358
1	108323	9.61	-62.305316829693
1	108323	9.61	-59.324601114588
1	108563	9.63	-61.48495511108
1	108563	9.63	-59.004466315341
1	108807	9.65	-61.103808164751
1	108807	9.65	-59.004466315341
1	109045	9.67	-61.103808164751
1	109045	9.67	-59.004466315341
1	109285	9.69	-61.103808164751
1	109285	9.69	-59.004466315341
1	109530	9.71	-62.81976902809
1	109530	9.71	-61.834706083505
1	109768	9.73	-64.485640530656
1	109768	9.73	-61.956176632409
1	110008	9.75	-63.996271630152
1	110008	9.75	-61.956176632409
1	110252	9.77	-63.996271630152
1	110252	9.77	-61.956176632409
1	110490	9.79	-63.996271630152
1	110490	9.79	-61.956176632409
1	110731	9.81	-64.997837588481
1	110731	9.81	-62.26788222508
1	110975	9.83	-64.178891488394
1	110975	9.83	-62.016604345294
1	111213	9.85	-63.997837813086
1	111213	9.85	-62.016604345294
1	111453	9.87	-63.997837813086
1	111453	9.87	-62.016604345294
1	111697	9.89	-63.997837813086
1	111697	9.89	-62.016604345294
1	111936	9.91	-63.105232918222
1	111936	9.91	-62.286499885403
1	112176	9.93	-64.875490454448
1	112176	9.93	-62.076818162035
1	112420	9.95	-63.999573805973
1	112420	9.95	-62.076818162035
1	112658	9.97	-63.999573805973
1	112658	9.97	-62.076818162035
1	112898	9.99	-63.999573805973
1	112898	9.99	-62.076818162035
1	113153	10.01	-65.752398961585
1	113153	10.01	-62.136819588124
1	113391	10.03	-64.001479504562
1	113391	10.03	-62.136819588124
1	113634	10.05	-64.001479504562
1	113634	10.05	-62.136819588124
1	113878	10.07	-64.001479504562
1	113878	10.07	-62.136819588124
1	114116	10.09	-64.001479504562
1	114116	10.09	-62.136819588124
1	114357	10.11	-57.94008071912
1	114357	10.11	-56.04377512941
1	114601	10.13	-57.434937460775
1	114601	10.13	-55.575117224317
1	114839	10.15	-57.382061905532
1	114839	10.15	-55.575117224317
1	118355	10.52	-60.328538702793
1	118355	10.52	-58.531516214408
1	118593	10.54	-61.011198560988
1	118593	10.54	-58.078515364916
1	142844	13.125	-71.324909176919
1	142844	13.125	-71.342832616642
1	143082	13.145	-72.254153373905
1	143082	13.145	-70.451398778555
1	143324	13.165	-70.696043556736
1	143324	13.165	-70.451398778555
1	143566	13.185	-70.696043556736
1	143566	13.185	-70.451398778555
1	143805	13.205	-65.556143528568
1	143805	13.205	-65.228625436524
1	144047	13.225	-65.117321057404
1	144047	13.225	-64.911254103003
1	144289	13.245	-65.109206573117
1	144289	13.245	-64.911254103003
1	144527	13.265	-65.109206573117
1	144527	13.265	-64.911254103003
1	144769	13.285	-65.109206573117
1	144769	13.285	-64.911254103003
1	145012	13.305	-64.57080604802
1	145012	13.305	-64.180679004574
1	145250	13.325	-65.830229208272
1	145250	13.325	-64.964998185303
1	145492	13.345	-65.116589568533
1	145492	13.345	-64.964998185303
1	145734	13.365	-65.116589568533
1	145734	13.365	-64.964998185303
1	145972	13.385	-65.116589568533
1	145972	13.385	-64.964998185303
1	146215	13.405	-67.439442655456
1	146215	13.405	-66.386705664825
1	146457	13.425	-65.602242942323
1	146457	13.425	-65.018572923931
1	146695	13.445	-65.124132944736
1	146695	13.445	-65.018572923931
1	146937	13.465	-65.124132944736
1	146937	13.465	-65.018572923931
1	147179	13.485	-65.124132944736
1	147179	13.485	-65.018572923931
1	147418	13.505	-70.379385154091
1	147418	13.505	-68.889828521128
1	147660	13.525	-69.724490164177
1	147660	13.525	-69.284780871871
1	147902	13.545	-69.344637759724
1	147902	13.545	-69.284780871871
1	148140	13.565	-69.344637759724
1	148140	13.565	-69.284780871871
1	148382	13.585	-69.344637759724
1	148382	13.585	-69.284780871871
1	148625	13.605	-70.302490614021
1	148625	13.605	-71.420214850459
1	148863	13.625	-69.110893030186
1	148863	13.625	-69.338020098971
1	149105	13.645	-69.352500590041
1	149105	13.645	-69.338020098971
1	149347	13.665	-69.352500590041
1	149347	13.665	-69.338020098971
1	149585	13.685	-69.352500590041
1	149585	13.685	-69.338020098971
1	149828	13.705	-70.139257710695
1	149828	13.705	-69.895033145392
1	150070	13.725	-70.6199479422
1	150070	13.725	-69.391093138459
1	150308	13.745	-69.36052247726
1	150308	13.745	-69.391093138459
1	150550	13.765	-69.36052247726
1	150550	13.765	-69.391093138459
1	150792	13.785	-69.36052247726
1	150792	13.785	-69.391093138459
1	151031	13.805	-69.661198642068
1	151031	13.805	-69.996336792325
1	151273	13.825	-69.105229155731
1	151273	13.825	-69.444001022805
1	151515	13.845	-69.368702963797
1	151515	13.845	-69.444001022805
1	151753	13.865	-69.368702963797
1	151753	13.865	-69.444001022805
1	151995	13.885	-69.368702963797
1	151995	13.885	-69.444001022805
1	152238	13.905	-71.749167504074
1	152238	13.905	-72.584025877612
1	152476	13.925	-70.215168721049
1	152476	13.925	-71.067329402298
1	152718	13.945	-70.947626211463
1	152718	13.945	-71.067329402298
1	152960	13.965	-70.947626211463
1	152960	13.965	-71.067329402298
1	153198	13.985	-70.947626211463
1	153198	13.985	-71.067329402298
1	153451	14.005	-70.645298743075
1	153451	14.005	-71.119910035584
1	153693	14.025	-70.956122491963
1	153693	14.025	-71.119910035584
1	153931	14.045	-70.956122491963
1	153931	14.045	-71.119910035584
1	154176	14.065	-70.956122491963
1	154176	14.065	-71.119910035584
1	154418	14.085	-70.956122491963
1	154418	14.085	-71.119910035584
1	154657	14.105	-71.377163106565
1	154657	14.105	-70.748647778878
1	154899	14.125	-71.604448091304
1	154899	14.125	-71.172328554154
1	155141	14.145	-70.964775951355
1	155141	14.145	-71.172328554154
1	155379	14.165	-70.964775951355
1	155379	14.165	-71.172328554154
1	155621	14.185	-70.964775951355
1	155621	14.185	-71.172328554154
1	155864	14.205	-64.478817071426
1	155864	14.205	-64.667871698676
1	156102	14.225	-64.138539413317
1	156102	14.225	-64.169073611118
1	156344	14.245	-63.9180737588
1	156344	14.245	-64.169073611118
1	156586	14.265	-63.9180737588
1	156586	14.265	-64.169073611118
1	156824	14.285	-63.9180737588
1	156824	14.285	-64.169073611118
1	157067	14.305	-64.379569439949
1	157067	14.305	-64.925608387416
1	157309	14.325	-65.567274867744
1	157309	14.325	-64.22117087575
1	157547	14.345	-63.927040101081
1	157547	14.345	-64.22117087575
1	157789	14.365	-63.927040101081
1	157789	14.365	-64.22117087575
1	158031	14.385	-63.927040101081
1	158031	14.385	-64.22117087575
1	158270	14.405	-63.468482333923
1	158270	14.405	-67.388850749121
1	158512	14.425	-64.066317413554
1	158512	14.425	-64.273108983041
1	158754	14.445	-63.936162132137
1	158754	14.445	-64.273108983041
1	158992	14.465	-63.936162132137
1	158992	14.465	-64.273108983041
1	159234	14.485	-63.936162132137
1	159234	14.485	-64.273108983041
1	159477	14.505	-64.167029924079
1	159477	14.505	-64.787708604978
1	159715	14.525	-63.349492591639
1	159715	14.525	-64.324888900848
1	159957	14.545	-63.945439340191
1	159957	14.545	-64.324888900848
1	160199	14.565	-63.945439340191
1	160199	14.565	-64.324888900848
1	160437	14.585	-63.945439340191
1	160437	14.585	-64.324888900848
1	160680	14.605	-63.825117891918
1	160680	14.605	-64.331808389484
1	160922	14.625	-75.18079125687
1	160922	14.625	-75.507258824633
1	161160	14.645	-75.085618442475
1	161160	14.645	-75.507258824633
1	161402	14.665	-75.085618442475
1	161402	14.665	-75.507258824633
1	161644	14.685	-75.085618442475
1	161644	14.685	-75.507258824633
1	161883	14.705	-74.035472642749
1	161883	14.705	-74.868240777218
1	162125	14.725	-75.578172595066
1	162125	14.725	-75.558725232002
1	162367	14.745	-75.095204439757
1	162367	14.745	-75.558725232002
1	162605	14.765	-75.095204439757
1	162605	14.765	-75.558725232002
1	162847	14.785	-75.095204439757
1	162847	14.785	-75.558725232002
1	163090	14.805	-75.048179678405
1	163090	14.805	-76.778471920825
1	163328	14.825	-75.150265742968
1	163328	14.825	-75.610036301159
1	163570	14.845	-75.104944034779
1	163570	14.845	-75.610036301159
1	163812	14.865	-75.104944034779
1	163812	14.865	-75.610036301159
1	164050	14.885	-75.104944034779
1	164050	14.885	-75.610036301159
1	164293	14.905	-75.36465065288
1	164293	14.905	-76.172518270575
1	164535	14.925	-74.68767902678
1	164535	14.925	-75.661192965442
1	164773	14.945	-75.114836686794
1	164773	14.945	-75.661192965442
1	165015	14.965	-75.114836686794
1	165015	14.965	-75.661192965442
1	165257	14.985	-75.114836686794
1	165257	14.985	-75.661192965442
1	165506	15.005	-65.031678644603
1	165506	15.005	-66.149244148113
1	165748	15.025	-65.561929846339
1	165748	15.025	-66.149244148113
1	165990	15.045	-65.561929846339
1	165990	15.045	-66.149244148113
1	166231	15.065	-65.561929846339
1	166231	15.065	-66.149244148113
1	166473	15.085	-65.561929846339
1	166473	15.085	-66.149244148113
1	166716	15.105	-64.730803131062
1	166716	15.105	-65.666125450712
1	166954	15.125	-66.224683360399
1	166954	15.125	-66.200094769272
1	167196	15.145	-65.572126962155
1	167196	15.145	-66.200094769272
1	167438	15.165	-65.572126962155
1	167438	15.165	-66.200094769272
1	167676	15.185	-65.572126962155
1	167676	15.185	-66.200094769272
1	167919	15.205	-66.699971169455
1	167919	15.205	-67.353039425515
1	168161	15.225	-67.649318577183
1	168161	15.225	-66.250793735733
1	168399	15.245	-65.582475471055
1	168399	15.245	-66.250793735733
1	168641	15.265	-65.582475471055
1	168641	15.265	-66.250793735733
1	168883	15.285	-65.582475471055
1	168883	15.285	-66.250793735733
1	169122	15.305	-67.100632256202
1	169122	15.305	-66.929680698499
1	169364	15.325	-66.323679935262
1	169364	15.325	-66.301341947934
1	169606	15.345	-65.59297480484
1	169606	15.345	-66.301341947934
1	169844	15.365	-65.59297480484
1	169844	15.365	-66.301341947934
1	170086	15.385	-65.59297480484
1	170086	15.385	-66.301341947934
1	170329	15.405	-54.132451953747
1	170329	15.405	-54.282425863147
1	170567	15.425	-53.710967717745
1	170567	15.425	-53.701599128481
1	170809	15.445	-52.953483218842
1	170809	15.445	-53.701599128481
1	171051	15.465	-52.953483218842
1	171051	15.465	-53.701599128481
1	171289	15.485	-52.953483218842
1	171289	15.485	-53.701599128481
1	171532	15.505	-52.666717307477
1	171532	15.505	-55.57728083581
1	171774	15.525	-54.479604540473
1	171774	15.525	-53.751848501644
1	172012	15.545	-52.964282471424
1	172012	15.545	-53.751848501644
1	172254	15.565	-52.964282471424
1	172254	15.565	-53.751848501644
1	172496	15.585	-52.964282471424
1	172496	15.585	-53.751848501644
1	172735	15.605	-52.963787477667
1	172735	15.605	-55.274394704154
1	172977	15.625	-53.483590197654
1	172977	15.625	-53.801949774343
1	173219	15.645	-52.975230804981
1	173219	15.645	-53.801949774343
1	173457	15.665	-52.975230804981
1	173457	15.665	-53.801949774343
1	173699	15.685	-52.975230804981
1	173699	15.685	-53.801949774343
1	173942	15.705	-60.093874346958
1	173942	15.705	-62.07391353267
1	174180	15.725	-61.133373716474
1	174180	15.725	-61.030203505686
1	174422	15.745	-60.164627315476
1	174422	15.745	-61.030203505686
1	174664	15.765	-60.164627315476
1	174664	15.765	-61.030203505686
1	174902	15.785	-60.164627315476
1	174902	15.785	-61.030203505686
1	175145	15.805	-61.702861979731
1	175145	15.805	-61.807809157545
1	175387	15.825	-59.979345691281
1	175387	15.825	-61.08001117704
1	175625	15.845	-60.175872022531
1	175625	15.845	-61.08001117704
1	175867	15.865	-60.175872022531
1	175867	15.865	-61.08001117704
1	176109	15.885	-60.175872022531
1	176109	15.885	-61.08001117704
1	176348	15.905	-60.981828402195
1	176348	15.905	-61.032114357642
1	176590	15.925	-60.798527443972
1	176590	15.925	-61.12967333237
1	176832	15.945	-60.187264009775
1	176832	15.945	-61.12967333237
1	177070	15.965	-60.187264009775
1	177070	15.965	-61.12967333237
1	177312	15.985	-60.187264009775
1	177312	15.985	-61.12967333237
1	177565	16.005	-60.97755253472
1	177565	16.005	-61.179190818161
1	177803	16.025	-60.198802664778
1	177803	16.025	-61.179190818161
1	178045	16.045	-60.198802664778
1	178045	16.045	-61.179190818161
1	178290	16.065	-60.198802664778
1	178290	16.065	-61.179190818161
1	178528	16.085	-60.198802664778
1	178528	16.085	-61.179190818161
1	178771	16.105	-63.220026782025
1	178771	16.105	-61.090988134617
1	179013	16.125	-63.621714349574
1	179013	16.125	-63.675014804386
1	179251	16.145	-62.65693770004
1	179251	16.145	-63.675014804386
1	179493	16.165	-62.65693770004
1	179493	16.165	-63.675014804386
1	179735	16.185	-62.65693770004
1	179735	16.185	-63.675014804386
1	179974	16.205	-64.36565441084
1	179974	16.205	-64.509458218274
1	185684	16.81	-67.456385582092
1	185684	16.81	-68.027287040187
1	185924	16.83	-68.286170163694
1	185924	16.83	-68.350634868318
1	186168	16.85	-67.076729625971
1	186168	16.85	-68.350634868318
1	186406	16.87	-67.076729625971
1	186406	16.87	-68.350634868318
1	186646	16.89	-67.076729625971
1	186646	16.89	-68.350634868318
1	186891	16.91	-70.267137270735
1	186891	16.91	-71.420798490368
1	187129	16.93	-70.843735829445
1	187129	16.93	-71.507475376231
1	187369	16.95	-70.198147931911
1	187369	16.95	-71.507475376231
1	187613	16.97	-70.198147931911
1	187613	16.97	-71.507475376231
1	187851	16.99	-70.198147931911
1	187851	16.99	-71.507475376231
1	188102	17.01	-71.946427463879
1	188102	17.01	-71.555591146575
1	188346	17.03	-70.211118331113
1	188346	17.03	-71.555591146575
1	188587	17.05	-70.211118331113
1	188587	17.05	-71.555591146575
1	188827	17.07	-70.211118331113
1	188827	17.07	-71.555591146575
1	189071	17.09	-70.211118331113
1	189071	17.09	-71.555591146575
1	189310	17.11	-69.979732851926
1	189310	17.11	-71.684243700479
1	189550	17.13	-69.665081290177
1	189550	17.13	-71.603571091458
1	189794	17.15	-70.224228293846
1	189794	17.15	-71.603571091458
1	190032	17.17	-70.224228293846
1	190032	17.17	-71.603571091458
1	190272	17.19	-70.224228293846
1	190272	17.19	-71.603571091458
1	190517	17.21	-71.168614026191
1	190517	17.21	-72.314844945382
1	190755	17.23	-71.76532323563
1	190755	17.23	-71.651415974462
1	190995	17.25	-70.237477143572
1	190995	17.25	-71.651415974462
1	191239	17.27	-70.237477143572
1	191239	17.27	-71.651415974462
1	191477	17.29	-70.237477143572
1	191477	17.29	-71.651415974462
1	191718	17.31	-75.790704052207
1	191718	17.31	-76.470271286652
1	191962	17.33	-75.803296510049
1	191962	17.33	-76.705885672782
1	192200	17.35	-75.257623319117
1	192200	17.35	-76.705885672782
1	192440	17.37	-75.257623319117
1	192440	17.37	-76.705885672782
1	192684	17.39	-75.257623319117
1	192684	17.39	-76.705885672782
1	192923	17.41	-77.214588609374
1	192923	17.41	-77.775898781029
1	193163	17.43	-76.111018597103
1	193163	17.43	-76.7128393318
1	193407	17.45	-75.222749024739
1	193407	17.45	-76.7128393318
1	193645	17.47	-75.222749024739
1	193645	17.47	-76.7128393318
1	193885	17.49	-75.222749024739
1	193885	17.49	-76.7128393318
1	194130	17.51	-76.578296006412
1	194130	17.51	-75.789218304983
1	194368	17.53	-75.11077000465
1	194368	17.53	-76.706038783354
1	194608	17.55	-75.171259379644
1	194608	17.55	-76.706038783354
1	194852	17.57	-75.171259379644
1	194852	17.57	-76.706038783354
1	195090	17.59	-75.171259379644
1	195090	17.59	-76.706038783354
1	195331	17.61	-73.277466137916
1	195331	17.61	-73.93668828252
1	195575	17.63	-72.920340655089
1	195575	17.63	-73.970063529432
1	195813	17.65	-72.390313586546
1	195813	17.65	-73.970063529432
1	196053	17.67	-72.390313586546
1	196053	17.67	-73.970063529432
1	196297	17.69	-72.390313586546
1	196297	17.69	-73.970063529432
1	196536	17.71	-72.077990138682
1	196536	17.71	-75.554734962114
1	196776	17.73	-72.44038341147
1	196776	17.73	-73.963520454461
1	197020	17.75	-72.338517335842
1	197020	17.75	-73.963520454461
1	197258	17.77	-72.338517335842
1	197258	17.77	-73.963520454461
1	197498	17.79	-72.338517335842
1	197498	17.79	-73.963520454461
1	197743	17.81	-72.644308633093
1	197743	17.81	-73.081940038629
1	197981	17.83	-73.099101961116
1	197981	17.83	-73.957106572484
1	198221	17.85	-72.286566445451
1	198221	17.85	-73.957106572484
1	198465	17.87	-72.286566445451
1	198465	17.87	-73.957106572484
1	198703	17.89	-72.286566445451
1	198703	17.89	-73.957106572484
1	198944	17.91	-73.885070100987
1	198944	17.91	-74.488364235029
1	199188	17.93	-71.750118312781
1	199188	17.93	-73.950822180437
1	199426	17.95	-72.234460014037
1	199426	17.95	-73.950822180437
1	199666	17.97	-72.234460014037
1	199666	17.97	-73.950822180437
1	199910	17.99	-72.234460014037
1	199910	17.99	-73.950822180437
1	200159	18.01	-68.962698719984
1	200159	18.01	-70.466360667781
1	200399	18.03	-68.70389023062
1	200399	18.03	-70.466360667781
1	200646	18.05	-68.70389023062
1	200646	18.05	-70.466360667781
1	200884	18.07	-68.70389023062
1	200884	18.07	-70.466360667781
1	201124	18.09	-68.70389023062
1	201124	18.09	-70.466360667781
1	201369	18.11	-67.943310707202
1	201369	18.11	-69.486795766088
1	201607	18.13	-68.76468407016
1	201607	18.13	-70.460336124411
1	201847	18.15	-68.651469982433
1	201847	18.15	-70.460336124411
1	202091	18.17	-68.651469982433
1	202091	18.17	-70.460336124411
1	202329	18.19	-68.651469982433
1	202329	18.19	-70.460336124411
1	202570	18.21	-68.057136643441
1	202570	18.21	-70.911714076816
1	202632	18.216	-68.992157549093
1	202632	18.216	-70.454441928688
1	202820	18.23	-68.59889144292
1	202820	18.23	-70.454441928688
1	203058	18.25	-68.59889144292
1	203058	18.25	-70.454441928688
1	203298	18.27	-68.59889144292
1	203298	18.27	-70.454441928688
1	203542	18.29	-68.59889144292
1	203542	18.29	-70.454441928688
1	203781	18.31	-69.323096013654
1	203781	18.31	-72.05382026087
1	204021	18.33	-67.718864721032
1	204021	18.33	-70.448678355346
1	204265	18.35	-68.546153679596
1	204265	18.35	-70.448678355346
1	204503	18.37	-68.546153679596
1	204503	18.37	-70.448678355346
1	204743	18.39	-68.546153679596
1	204743	18.39	-70.448678355346
1	204988	18.41	-68.369751143835
1	204988	18.41	-69.793199959938
1	205226	18.43	-67.301022725031
1	205226	18.43	-69.631239285071
1	205466	18.45	-67.68144936358
1	205466	18.45	-69.631239285071
1	205710	18.47	-67.68144936358
1	205710	18.47	-69.631239285071
1	205948	18.49	-67.68144936358
1	205948	18.49	-69.631239285071
1	206189	18.51	-68.285276894359
1	206189	18.51	-70.178202163219
1	206433	18.53	-67.806181884885
1	206433	18.53	-69.625737758027
1	206671	18.55	-67.628390323076
1	206671	18.55	-69.625737758027
1	206911	18.57	-67.628390323076
1	206911	18.57	-69.625737758027
1	207155	18.59	-67.628390323076
1	207155	18.59	-69.625737758027
1	207394	18.61	-66.657642719188
1	207394	18.61	-69.245728766392
1	207634	18.63	-68.373033816769
1	207634	18.63	-69.620367643466
1	207878	18.65	-67.575169212931
1	207878	18.65	-69.620367643466
1	208116	18.67	-67.575169212931
1	208116	18.67	-69.620367643466
1	208356	18.69	-67.575169212931
1	208356	18.69	-69.620367643466
1	208601	18.71	-66.815678404966
1	208601	18.71	-70.34824462691
1	214432	19.327	-69.526512636288
1	214432	19.327	-70.886446174172
1	214674	19.347	-69.516283521453
1	214674	19.347	-70.714627413057
1	214912	19.367	-68.326151966513
1	214912	19.367	-70.714627413057
1	215154	19.387	-68.326151966513
1	215154	19.387	-70.714627413057
1	215397	19.407	-68.412885522927
1	215397	19.407	-71.123449624865
1	215635	19.427	-70.390021774764
1	215635	19.427	-70.710317172318
1	215877	19.447	-68.271598843704
1	215877	19.447	-70.710317172318
1	216119	19.467	-68.271598843704
1	216119	19.467	-70.710317172318
1	216357	19.487	-68.271598843704
1	216357	19.487	-70.710317172318
1	216600	19.507	-70.066690845691
1	216600	19.507	-70.725951327913
1	216842	19.527	-69.300262075043
1	216842	19.527	-70.706140398405
1	217080	19.547	-68.21687465692
1	217080	19.547	-70.706140398405
1	217322	19.567	-68.21687465692
1	217322	19.567	-70.706140398405
1	217564	19.587	-68.21687465692
1	217564	19.587	-70.706140398405
1	217803	19.607	-60.722525654284
1	217803	19.607	-61.973643741845
1	218045	19.627	-61.204818845525
1	218045	19.627	-61.441844329371
1	218287	19.647	-58.901725402229
1	218287	19.647	-61.441844329371
1	218525	19.667	-58.901725402229
1	218525	19.667	-61.441844329371
1	218767	19.687	-58.901725402229
1	218767	19.687	-61.441844329371
1	219010	19.707	-58.649183466252
1	219010	19.707	-61.081193619325
1	219248	19.727	-59.636109929574
1	219248	19.727	-61.437935077671
1	219490	19.747	-58.846655946982
1	219490	19.747	-61.437935077671
1	219732	19.767	-58.846655946982
1	219732	19.767	-61.437935077671
1	219970	19.787	-58.846655946982
1	219970	19.787	-61.437935077671
1	220213	19.807	-60.380990693369
1	220213	19.807	-62.057874941419
1	220455	19.827	-59.821697732976
1	220455	19.827	-61.434159869074
1	220693	19.847	-58.79141226865
1	220693	19.847	-61.434159869074
1	220935	19.867	-58.79141226865
1	220935	19.867	-61.434159869074
1	221177	19.887	-58.79141226865
1	221177	19.887	-61.434159869074
1	221416	19.907	-59.907721243005
1	221416	19.907	-61.100130353159
1	221658	19.927	-58.612667495411
1	221658	19.927	-61.430518883343
1	221900	19.947	-58.735993295424
1	221900	19.947	-61.430518883343
1	222138	19.967	-58.735993295424
1	222138	19.967	-61.430518883343
1	222380	19.987	-58.735993295424
1	222380	19.987	-61.430518883343
2	257	0.002	14.899973994162
2	313	0.008	14.899973994162
2	369	0.014	14.899973994162
2	470	0.02	14.899973994162
2	536	0.026	14.899973994162
2	592	0.032	14.899973994162
2	690	0.038	14.899973994162
2	758	0.044	14.899973994162
2	817	0.05	14.899973994162
2	873	0.056	14.899973994162
2	981	0.062	14.899973994162
2	1039	0.068	14.899973994162
2	1095	0.074	14.899973994162
2	1195	0.08	14.899973994162
2	1261	0.086	14.899973994162
2	1317	0.092	14.899973994162
2	1415	0.098	14.899973994162
2	1484	0.104	15.588175507506
2	1540	0.11	15.621949612228
2	1596	0.116	14.868620734201
2	1704	0.122	14.868620734201
2	1762	0.128	14.868620734201
2	1818	0.134	14.868620734201
2	1918	0.14	14.803823415762
2	1984	0.146	13.524484654138
2	2040	0.152	14.857607786661
2	2138	0.158	14.857607786661
2	2206	0.164	14.857607786661
2	2262	0.17	14.857607786661
2	2318	0.176	14.857607786661
2	2426	0.182	14.857607786661
2	2484	0.188	14.857607786661
2	2540	0.194	14.857607786661
2	2641	0.2	14.857607786661
2	2707	0.206	15.386993934141
2	2763	0.212	15.004803414208
2	2861	0.218	14.837101589931
2	2929	0.224	14.837101589931
2	2985	0.23	14.837101589931
2	3041	0.236	14.837101589931
2	3149	0.242	14.837101589931
2	3207	0.248	14.837101589931
2	3263	0.254	14.837101589931
2	3363	0.26	14.837101589931
2	3429	0.266	14.837101589931
2	3485	0.272	14.837101589931
2	3583	0.278	14.532782199357
2	3651	0.284	14.986156147508
2	3707	0.29	14.81303749395
2	3763	0.296	14.81303749395
2	3872	0.302	15.058465401182
2	3930	0.308	14.807151968745
2	3986	0.314	14.805418831412
2	4086	0.32	14.805418831412
2	4152	0.326	14.805418831412
2	4208	0.332	14.805418831412
2	4306	0.338	14.805418831412
2	4374	0.344	14.805418831412
2	4430	0.35	14.805418831412
2	4486	0.356	14.805418831412
2	4594	0.362	14.805418831412
2	4652	0.368	14.805418831412
2	4708	0.374	14.805418831412
2	4808	0.38	14.805418831412
2	4874	0.386	14.805418831412
2	4930	0.392	14.805418831412
2	5028	0.398	14.805418831412
2	5097	0.404	15.041059277157
2	5153	0.41	16.143762092558
2	5209	0.416	14.773574719665
2	5317	0.422	14.773574719665
2	5375	0.428	14.773574719665
2	5431	0.434	14.773574719665
2	5531	0.44	14.773574719665
2	5597	0.446	14.773574719665
2	5653	0.452	14.773574719665
2	5751	0.458	14.773574719665
2	5819	0.464	14.773574719665
2	5875	0.47	14.773574719665
2	5931	0.476	14.773574719665
2	6039	0.482	14.773574719665
2	6097	0.488	14.773574719665
2	6153	0.494	14.773574719665
2	6254	0.5	14.773574719665
2	6320	0.506	16.441855256391
2	6376	0.512	14.168592169054
2	6474	0.518	14.741571506359
2	6542	0.524	14.741571506359
2	6598	0.53	14.741571506359
2	6654	0.536	14.741571506359
2	6762	0.542	14.741571506359
2	6820	0.548	14.741571506359
2	6876	0.554	14.741571506359
2	6976	0.56	14.741571506359
2	7042	0.566	14.741571506359
2	7098	0.572	14.741571506359
2	7196	0.578	14.741571506359
2	7264	0.584	14.741571506359
2	7320	0.59	14.741571506359
2	7376	0.596	14.741571506359
2	7485	0.602	13.327460552276
2	7543	0.608	15.199372605306
2	7599	0.614	15.240027982645
2	7699	0.62	15.240027982645
2	7765	0.626	15.240027982645
2	7821	0.632	15.240027982645
2	7919	0.638	15.240027982645
2	7987	0.644	15.240027982645
2	8043	0.65	15.240027982645
2	8099	0.656	15.240027982645
2	8207	0.662	15.240027982645
2	8265	0.668	15.240027982645
2	8321	0.674	15.240027982645
2	8421	0.68	15.240027982645
2	8487	0.686	15.240027982645
2	8543	0.692	15.240027982645
2	8641	0.698	15.240027982645
2	8710	0.704	15.927144782373
2	8766	0.71	14.011798252794
2	8822	0.716	15.207713282328
2	8930	0.722	15.207713282328
2	8988	0.728	15.207713282328
2	9044	0.734	15.207713282328
2	9144	0.74	15.207713282328
2	9210	0.746	15.207713282328
2	9266	0.752	15.207713282328
2	9364	0.758	15.207713282328
2	9432	0.764	15.207713282328
2	9488	0.77	15.207713282328
2	9544	0.776	15.207713282328
2	9652	0.782	15.207713282328
2	9710	0.788	15.207713282328
2	9766	0.794	15.207713282328
2	9867	0.8	15.207713282328
2	9933	0.806	15.003577424211
2	9989	0.812	15.731408325331
2	10087	0.818	15.175246176379
2	10155	0.824	15.175246176379
2	10211	0.83	15.175246176379
2	10267	0.836	15.175246176379
2	10375	0.842	15.175246176379
2	10433	0.848	15.175246176379
2	10489	0.854	15.175246176379
2	10589	0.86	15.175246176379
2	10655	0.866	15.175246176379
2	10711	0.872	15.175246176379
2	10809	0.878	15.175246176379
2	10877	0.884	15.175246176379
2	10933	0.89	15.175246176379
2	10989	0.896	15.175246176379
2	11098	0.902	15.210186465705
2	11156	0.908	14.681215656886
2	11212	0.914	15.142628876131
2	11312	0.92	15.142628876131
2	11378	0.926	15.142628876131
2	11434	0.932	15.142628876131
2	11532	0.938	15.142628876131
2	11600	0.944	15.142628876131
2	11656	0.95	15.142628876131
2	11712	0.956	15.142628876131
2	11820	0.962	15.142628876131
2	11878	0.968	15.142628876131
2	11934	0.974	15.142628876131
2	12034	0.98	15.142628876131
2	12100	0.986	15.142628876131
2	12156	0.992	15.142628876131
2	12254	0.998	15.142628876131
2	12333	1.004	15.809246267651
2	12389	1.01	14.523424397945
2	12445	1.016	15.109863582139
2	12553	1.022	15.109863582139
2	12611	1.028	15.109863582139
2	12667	1.034	15.109863582139
2	12767	1.04	15.109863582139
2	12833	1.046	15.109863582139
2	12892	1.052	15.109863582139
2	12990	1.058	15.109863582139
2	13058	1.064	15.109863582139
2	13114	1.07	15.109863582139
2	13170	1.076	15.109863582139
2	13278	1.082	15.109863582139
2	13336	1.088	15.109863582139
2	13392	1.094	15.109863582139
2	13493	1.1	15.109863582139
2	13559	1.106	16.209734236389
2	13615	1.112	15.781090122694
2	13713	1.118	15.076952483921
2	13781	1.124	15.076952483921
2	13837	1.13	15.076952483921
2	13893	1.136	15.076952483921
2	14001	1.142	15.076952483921
2	14059	1.148	15.076952483921
2	14115	1.154	15.076952483921
2	14215	1.16	15.076952483921
2	14281	1.166	15.076952483921
2	14337	1.172	15.076952483921
2	14435	1.178	15.076952483921
2	14503	1.184	15.076952483921
2	14559	1.19	15.076952483921
2	14615	1.196	15.076952483921
2	14724	1.202	15.151763158937
2	14782	1.208	15.504617401114
2	14838	1.214	15.043897759712
2	14938	1.22	15.043897759712
2	15004	1.226	15.043897759712
2	15060	1.232	15.043897759712
2	15158	1.238	15.043897759712
2	15226	1.244	15.043897759712
2	15282	1.25	15.043897759712
2	15338	1.256	15.043897759712
2	15446	1.262	15.043897759712
2	15504	1.268	15.043897759712
2	15560	1.274	15.043897759712
2	15660	1.28	15.043897759712
2	15726	1.286	15.043897759712
2	15782	1.292	15.043897759712
2	15880	1.298	15.043897759712
2	15949	1.304	21.553088550876
2	16005	1.31	21.388044807538
2	16061	1.316	21.37834842178
2	16169	1.322	21.37834842178
2	16227	1.328	21.37834842178
2	16283	1.334	21.37834842178
2	16383	1.34	21.37834842178
2	16449	1.346	21.37834842178
2	16505	1.352	21.37834842178
2	16603	1.358	21.37834842178
2	16671	1.364	21.37834842178
2	16727	1.37	21.37834842178
2	16783	1.376	21.37834842178
2	16891	1.382	21.37834842178
2	16949	1.388	21.37834842178
2	17005	1.394	21.37834842178
2	17106	1.4	21.37834842178
2	17172	1.406	21.164165261986
2	17228	1.412	21.499368410351
2	17326	1.418	21.345012933944
2	17394	1.424	21.345012933944
2	17450	1.43	21.345012933944
2	17506	1.436	21.345012933944
2	17614	1.442	21.345012933944
2	17672	1.448	21.345012933944
2	17728	1.454	21.345012933944
2	17828	1.46	21.345012933944
2	17894	1.466	21.345012933944
2	17950	1.472	21.345012933944
2	18048	1.478	21.345012933944
2	18116	1.484	21.345012933944
2	18172	1.49	21.345012933944
2	18228	1.496	21.345012933944
2	18337	1.502	21.483151417036
2	18395	1.508	22.198532214766
2	18451	1.514	21.31154028472
2	18551	1.52	21.31154028472
2	18617	1.526	21.31154028472
2	18673	1.532	21.31154028472
2	18771	1.538	21.31154028472
2	18839	1.544	21.31154028472
2	18895	1.55	21.31154028472
2	18951	1.556	21.31154028472
2	19059	1.562	21.31154028472
2	19117	1.568	21.31154028472
2	19173	1.574	21.31154028472
2	19273	1.58	21.31154028472
2	19339	1.586	21.31154028472
2	19395	1.592	21.31154028472
2	19493	1.598	21.31154028472
2	19562	1.604	21.856929588884
2	19618	1.61	20.594654190416
2	19674	1.616	21.277932604857
2	19782	1.622	21.277932604857
2	19840	1.628	21.277932604857
2	19896	1.634	21.277932604857
2	19996	1.64	21.277932604857
2	20062	1.646	21.277932604857
2	20118	1.652	21.277932604857
2	20216	1.658	21.277932604857
2	20284	1.664	21.277932604857
2	20340	1.67	21.277932604857
2	20396	1.676	21.277932604857
2	20504	1.682	21.277932604857
2	20562	1.688	21.277932604857
2	20618	1.694	21.277932604857
2	20719	1.7	21.277932604857
2	20785	1.706	22.027847732295
2	20841	1.712	21.155063399039
2	20939	1.718	21.244192012688
2	21007	1.724	21.244192012688
2	21063	1.73	21.244192012688
2	21119	1.736	21.244192012688
2	21227	1.742	21.244192012688
2	21285	1.748	21.244192012688
2	21341	1.754	21.244192012688
2	21441	1.76	21.244192012688
2	21507	1.766	21.244192012688
2	21563	1.772	21.244192012688
2	21661	1.778	21.244192012688
2	21729	1.784	21.244192012688
2	21785	1.79	21.244192012688
2	21841	1.796	21.244192012688
2	21950	1.802	21.294575753001
2	22008	1.808	22.547454065867
2	22064	1.814	21.21032061393
2	22164	1.82	21.21032061393
2	22230	1.826	21.21032061393
2	22286	1.832	21.21032061393
2	22384	1.838	21.21032061393
2	22452	1.844	21.21032061393
2	22508	1.85	21.21032061393
2	22564	1.856	21.21032061393
2	22672	1.862	21.21032061393
2	22730	1.868	21.21032061393
2	22786	1.874	21.21032061393
2	22886	1.88	21.21032061393
2	22952	1.886	21.21032061393
2	23008	1.892	21.21032061393
2	23106	1.898	21.21032061393
2	23175	1.904	21.601068086437
2	23231	1.91	25.840843763381
2	23287	1.916	27.611841551754
2	23395	1.922	27.611841551754
2	23453	1.928	27.611841551754
2	23509	1.934	27.611841551754
2	23609	1.94	27.611841551754
2	23675	1.946	27.611841551754
2	23731	1.952	27.611841551754
2	23829	1.958	27.611841551754
2	23897	1.964	27.611841551754
2	23953	1.97	27.611841551754
2	24009	1.976	27.611841551754
2	24117	1.982	27.611841551754
2	24175	1.988	27.611841551754
2	24231	1.994	27.611841551754
2	24334	2	27.611841551754
2	24408	2.006	27.57047834075
2	24464	2.012	27.148185070455
2	24562	2.018	27.577714805535
2	24630	2.024	27.577714805535
2	24686	2.03	27.577714805535
2	24742	2.036	27.577714805535
2	24850	2.042	27.577714805535
2	24908	2.048	27.577714805535
2	24967	2.054	27.577714805535
2	25067	2.06	27.577714805535
2	25133	2.066	27.577714805535
2	25189	2.072	27.577714805535
2	25287	2.078	27.577714805535
2	25355	2.084	27.577714805535
2	25411	2.09	27.577714805535
2	25467	2.096	27.577714805535
2	25576	2.102	27.352010711855
2	25634	2.108	27.719978122297
2	25690	2.114	27.543463492271
2	25790	2.12	27.543463492271
2	25856	2.126	27.543463492271
2	25912	2.132	27.543463492271
2	26010	2.138	27.543463492271
2	26078	2.144	27.543463492271
2	26134	2.15	27.543463492271
2	26190	2.156	27.543463492271
2	26299	2.162	27.543463492271
2	26357	2.168	27.543463492271
2	26413	2.174	27.543463492271
2	26469	2.18	27.543463492271
2	26525	2.186	27.543463492271
2	26581	2.192	27.543463492271
2	26637	2.198	27.543463492271
2	26694	2.204	27.684960421781
2	26750	2.21	26.91093888649
2	26806	2.216	27.50908966535
2	26862	2.222	27.50908966535
2	26918	2.228	27.50908966535
2	26974	2.234	27.50908966535
2	27030	2.24	27.50908966535
2	27086	2.246	27.50908966535
2	27142	2.252	27.50908966535
2	27198	2.258	27.50908966535
2	27254	2.264	27.50908966535
2	27310	2.27	27.50908966535
2	27366	2.276	27.50908966535
2	27422	2.282	27.50908966535
2	27478	2.288	27.50908966535
2	27534	2.294	27.50908966535
2	27591	2.3	27.50908966535
2	27647	2.306	27.435803795467
2	27703	2.312	27.789859528382
2	27759	2.318	27.474595364648
2	27815	2.324	27.474595364648
2	27871	2.33	27.474595364648
2	27927	2.336	27.474595364648
2	27983	2.342	27.474595364648
2	28039	2.348	27.474595364648
2	28095	2.354	27.474595364648
2	28151	2.36	27.474595364648
2	28207	2.366	27.474595364648
2	28263	2.372	27.474595364648
2	28319	2.378	27.474595364648
2	28375	2.384	27.474595364648
2	28431	2.39	27.474595364648
2	28487	2.396	27.474595364648
2	28544	2.402	26.513771422214
2	28600	2.408	27.002107460085
2	28656	2.414	27.43998261638
2	28712	2.42	27.43998261638
2	28768	2.426	27.43998261638
2	28824	2.432	27.43998261638
2	28880	2.438	27.43998261638
2	28936	2.444	27.43998261638
2	28992	2.45	27.43998261638
2	29048	2.456	27.43998261638
2	29104	2.462	27.43998261638
2	29160	2.468	27.43998261638
2	29216	2.474	27.43998261638
2	29272	2.48	27.43998261638
2	29328	2.486	27.43998261638
2	29384	2.492	27.43998261638
2	29440	2.498	27.43998261638
2	29497	2.504	27.445232518206
2	29553	2.51	27.215865947673
2	29609	2.516	27.405253432943
2	29665	2.522	27.405253432943
2	29721	2.528	27.405253432943
2	29777	2.534	27.405253432943
2	29833	2.54	27.405253432943
2	29889	2.546	27.405253432943
2	29945	2.552	27.405253432943
2	30001	2.558	27.405253432943
2	30057	2.564	27.405253432943
2	30113	2.57	27.405253432943
2	30169	2.576	27.405253432943
2	30225	2.582	27.405253432943
2	30281	2.588	27.405253432943
2	30337	2.594	27.405253432943
2	30394	2.6	27.405253432943
2	30450	2.606	27.00786002004
2	30506	2.612	28.521643925831
2	30562	2.618	27.990405723582
2	30618	2.624	27.990405723582
2	30674	2.63	27.990405723582
2	30730	2.636	27.990405723582
2	30786	2.642	27.990405723582
2	30842	2.648	27.990405723582
2	30898	2.654	27.990405723582
2	30954	2.66	27.990405723582
2	31010	2.666	27.990405723582
2	31066	2.672	27.990405723582
2	31122	2.678	27.990405723582
2	31178	2.684	27.990405723582
2	31234	2.69	27.990405723582
2	31290	2.696	27.990405723582
2	31347	2.702	27.796987904875
2	31403	2.708	28.592720859456
2	31459	2.714	27.955449651052
2	31515	2.72	27.955449651052
2	31571	2.726	27.955449651052
2	31627	2.732	27.955449651052
2	31683	2.738	27.955449651052
2	31739	2.744	27.955449651052
2	31795	2.75	27.955449651052
2	31851	2.756	27.955449651052
2	31907	2.762	27.955449651052
2	31963	2.768	27.955449651052
2	32019	2.774	27.955449651052
2	32075	2.78	27.955449651052
2	32131	2.786	27.955449651052
2	32187	2.792	27.955449651052
2	32243	2.798	27.955449651052
2	32300	2.804	27.881646209046
2	32356	2.81	28.058958660322
2	32412	2.816	27.92038309629
2	32468	2.822	27.92038309629
2	32524	2.828	27.92038309629
2	32580	2.834	27.92038309629
2	32636	2.84	27.92038309629
2	32692	2.846	27.92038309629
2	32748	2.852	27.92038309629
2	32804	2.858	27.92038309629
2	32860	2.864	27.92038309629
2	32916	2.87	27.92038309629
2	32972	2.876	27.92038309629
2	33028	2.882	27.92038309629
2	33084	2.888	27.92038309629
2	33140	2.894	27.92038309629
2	33197	2.9	27.92038309629
2	33253	2.906	28.085465246928
2	33309	2.912	27.197933726067
2	33365	2.918	27.885208015099
2	33421	2.924	27.885208015099
2	33477	2.93	27.885208015099
2	33533	2.936	27.885208015099
2	33589	2.942	27.885208015099
2	33645	2.948	27.885208015099
2	33701	2.954	27.885208015099
2	33757	2.96	27.885208015099
2	33813	2.966	27.885208015099
2	33869	2.972	27.885208015099
2	33925	2.978	27.885208015099
2	33981	2.984	27.885208015099
2	34037	2.99	27.885208015099
2	34093	2.996	27.885208015099
2	34160	3.002	27.730214966682
2	34216	3.008	27.32903694517
2	34272	3.014	27.849926348827
2	34328	3.02	27.849926348827
2	34384	3.026	27.849926348827
2	34440	3.032	27.849926348827
2	34496	3.038	27.849926348827
2	34552	3.044	27.849926348827
2	34611	3.05	27.849926348827
2	34667	3.056	27.849926348827
2	34723	3.062	27.849926348827
2	34779	3.068	27.849926348827
2	34835	3.074	27.849926348827
2	34891	3.08	27.849926348827
2	34947	3.086	27.849926348827
2	35003	3.092	27.849926348827
2	35059	3.098	27.849926348827
2	35116	3.104	26.009050525295
2	35172	3.11	27.945592030524
2	35228	3.116	27.814540024267
2	35284	3.122	27.814540024267
2	35340	3.128	27.814540024267
2	35396	3.134	27.814540024267
2	35452	3.14	27.814540024267
2	35508	3.146	27.814540024267
2	35564	3.152	27.814540024267
2	35620	3.158	27.814540024267
2	35676	3.164	27.814540024267
2	35732	3.17	27.814540024267
2	35788	3.176	27.814540024267
2	35844	3.182	27.814540024267
2	35900	3.188	27.814540024267
2	35956	3.194	27.814540024267
2	36013	3.2	27.814540024267
2	36069	3.206	26.413948671321
2	36125	3.212	23.000112954195
2	36181	3.218	23.143875888854
2	36237	3.224	23.143875888854
2	36293	3.23	23.143875888854
2	36349	3.236	23.143875888854
2	36405	3.242	23.143875888854
2	36461	3.248	23.143875888854
2	36517	3.254	23.143875888854
2	36573	3.26	23.143875888854
2	36629	3.266	23.143875888854
2	36685	3.272	23.143875888854
2	36741	3.278	23.143875888854
2	36797	3.284	23.143875888854
2	36853	3.29	23.143875888854
2	36909	3.296	23.143875888854
2	36966	3.302	25.023579099879
2	37022	3.308	23.694429017413
2	37078	3.314	23.108285969363
2	37134	3.32	23.108285969363
2	37190	3.326	23.108285969363
2	37246	3.332	23.108285969363
2	37302	3.338	23.108285969363
2	37358	3.344	23.108285969363
2	37414	3.35	23.108285969363
2	37470	3.356	23.108285969363
2	37526	3.362	23.108285969363
2	37582	3.368	23.108285969363
2	37638	3.374	23.108285969363
2	37694	3.38	23.108285969363
2	37750	3.386	23.108285969363
2	37806	3.392	23.108285969363
2	37862	3.398	23.108285969363
2	37919	3.404	23.467708249208
2	37975	3.41	22.808451376479
2	38031	3.416	23.072597083634
2	38087	3.422	23.072597083634
2	38143	3.428	23.072597083634
2	38199	3.434	23.072597083634
2	38255	3.44	23.072597083634
2	38311	3.446	23.072597083634
2	38367	3.452	23.072597083634
2	38476	3.458	23.072597083634
2	38534	3.464	23.072597083634
2	38590	3.47	23.072597083634
2	38690	3.476	23.072597083634
2	38756	3.482	23.072597083634
2	38812	3.488	23.072597083634
2	38910	3.494	23.072597083634
2	38979	3.5	23.072597083634
2	39035	3.506	23.484964144427
2	39091	3.512	22.871267966271
2	39199	3.518	23.036811099284
2	39257	3.524	23.036811099284
2	39313	3.53	23.036811099284
2	39413	3.536	23.036811099284
2	39479	3.542	23.036811099284
2	39535	3.548	23.036811099284
2	39633	3.554	23.036811099284
2	39701	3.56	23.036811099284
2	39757	3.566	23.036811099284
2	39813	3.572	23.036811099284
2	39921	3.578	23.036811099284
2	39979	3.584	23.036811099284
2	40035	3.59	23.036811099284
2	40135	3.596	23.036811099284
2	40202	3.602	22.416771647339
2	40258	3.608	23.535984514709
2	40356	3.614	23.000929868926
2	40424	3.62	23.000929868926
2	40480	3.626	23.000929868926
2	40536	3.632	23.000929868926
2	40644	3.638	23.000929868926
2	40702	3.644	23.000929868926
2	40758	3.65	23.000929868926
2	40858	3.656	23.000929868926
2	40924	3.662	23.000929868926
2	40980	3.668	23.000929868926
2	41078	3.674	23.000929868926
2	41146	3.68	23.000929868926
2	41202	3.686	23.000929868926
2	41258	3.692	23.000929868926
2	41366	3.698	23.000929868926
2	41425	3.704	23.552252187234
2	41481	3.71	21.203856483755
2	41581	3.716	22.964955230109
2	41647	3.722	22.964955230109
2	41703	3.728	22.964955230109
2	41801	3.734	22.964955230109
2	41869	3.74	22.964955230109
2	41925	3.746	22.964955230109
2	41981	3.752	22.964955230109
2	42089	3.758	22.964955230109
2	42147	3.764	22.964955230109
2	42203	3.77	22.964955230109
2	42303	3.776	22.964955230109
2	42369	3.782	22.964955230109
2	42425	3.788	22.964955230109
2	42523	3.794	22.964955230109
2	42592	3.8	22.964955230109
2	42648	3.806	21.947699216607
2	42704	3.812	21.995603988401
2	42812	3.818	22.928889005244
2	42870	3.824	22.928889005244
2	42926	3.83	22.928889005244
2	43026	3.836	22.928889005244
2	43092	3.842	22.928889005244
2	43148	3.848	22.928889005244
2	43246	3.854	22.928889005244
2	43314	3.86	22.928889005244
2	43370	3.866	22.928889005244
2	43426	3.872	22.928889005244
2	43534	3.878	22.928889005244
2	43592	3.884	22.928889005244
2	43648	3.89	22.928889005244
2	43748	3.896	22.928889005244
2	43815	3.902	23.386519171433
2	43871	3.908	24.812627756219
2	43969	3.914	23.622496502334
2	44037	3.92	23.622496502334
2	44093	3.926	23.622496502334
2	44149	3.932	23.622496502334
2	44257	3.938	23.622496502334
2	44315	3.944	23.622496502334
2	44371	3.95	23.622496502334
2	44471	3.956	23.622496502334
2	44537	3.962	23.622496502334
2	44593	3.968	23.622496502334
2	44691	3.974	23.622496502334
2	44759	3.98	23.622496502334
2	44815	3.986	23.622496502334
2	44871	3.992	23.622496502334
2	44979	3.998	23.622496502334
2	45048	4.004	22.303896269474
2	45104	4.01	23.887674369219
2	45204	4.016	23.586252511795
2	45270	4.022	23.586252511795
2	45326	4.028	23.586252511795
2	45424	4.034	23.586252511795
2	45492	4.04	23.586252511795
2	45548	4.046	23.586252511795
2	45607	4.052	23.586252511795
2	45715	4.058	23.586252511795
2	45773	4.064	23.586252511795
2	45829	4.07	23.586252511795
2	45929	4.076	23.586252511795
2	45995	4.082	23.586252511795
2	46052	4.088	23.586252511795
2	46108	4.094	23.586252511795
2	46165	4.1	23.586252511795
2	46221	4.106	22.112963627992
2	46277	4.112	23.057119173493
2	46333	4.118	23.549922311091
2	46389	4.124	23.549922311091
2	46445	4.13	23.549922311091
2	46501	4.136	23.549922311091
2	46557	4.142	23.549922311091
2	46613	4.148	23.549922311091
2	46669	4.154	23.549922311091
2	46725	4.16	23.549922311091
2	46781	4.166	23.549922311091
2	46837	4.172	23.549922311091
2	46893	4.178	23.549922311091
2	46949	4.184	23.549922311091
2	47005	4.19	23.549922311091
2	47061	4.196	23.549922311091
2	47118	4.202	23.309101767437
2	47174	4.208	23.042026463384
2	47230	4.214	23.513507661571
2	47286	4.22	23.513507661571
2	47342	4.226	23.513507661571
2	47398	4.232	23.513507661571
2	47454	4.238	23.513507661571
2	47510	4.244	23.513507661571
2	47566	4.25	23.513507661571
2	47622	4.256	23.513507661571
2	47678	4.262	23.513507661571
2	47734	4.268	23.513507661571
2	47790	4.274	23.513507661571
2	47846	4.28	23.513507661571
2	47902	4.286	23.513507661571
2	47958	4.292	23.513507661571
2	48014	4.298	23.513507661571
2	48114	4.304	23.062609443313
2	48182	4.31	21.415114835901
2	48238	4.316	23.477010309213
2	48294	4.322	23.477010309213
2	48402	4.328	23.477010309213
2	48460	4.334	23.477010309213
2	48516	4.34	23.477010309213
2	48616	4.346	23.477010309213
2	48682	4.352	23.477010309213
2	48738	4.358	23.477010309213
2	48836	4.364	23.477010309213
2	48904	4.37	23.477010309213
2	48960	4.376	23.477010309213
2	49016	4.382	23.477010309213
2	49124	4.388	23.477010309213
2	49182	4.394	23.477010309213
2	49239	4.4	23.477010309213
2	49339	4.406	22.767136857818
2	49405	4.412	23.62049638302
2	49461	4.418	23.440431984591
2	49559	4.424	23.440431984591
2	49627	4.43	23.440431984591
2	49683	4.436	23.440431984591
2	49739	4.442	23.440431984591
2	49847	4.448	23.440431984591
2	49905	4.454	23.440431984591
2	49961	4.46	23.440431984591
2	50061	4.466	23.440431984591
2	50127	4.472	23.440431984591
2	50183	4.478	23.440431984591
2	50281	4.484	23.440431984591
2	50349	4.49	23.440431984591
2	50405	4.496	23.440431984591
2	50462	4.502	25.893842199042
2	50570	4.508	26.136221347362
2	50628	4.514	25.665509787597
2	50684	4.52	25.665509787597
2	50784	4.526	25.665509787597
2	50850	4.532	25.665509787597
2	50906	4.538	25.665509787597
2	51004	4.544	25.665509787597
2	51072	4.55	25.665509787597
2	51128	4.556	25.665509787597
2	51184	4.562	25.665509787597
2	51292	4.568	25.665509787597
2	51350	4.574	25.665509787597
2	51406	4.58	25.665509787597
2	51506	4.586	25.665509787597
2	51572	4.592	25.665509787597
2	51628	4.598	25.665509787597
2	51727	4.604	26.118698492467
2	51795	4.61	24.838615803873
2	51851	4.616	25.628774648425
2	51907	4.622	25.628774648425
2	52015	4.628	25.628774648425
2	52073	4.634	25.628774648425
2	52129	4.64	25.628774648425
2	52229	4.646	25.628774648425
2	52295	4.652	25.628774648425
2	52351	4.658	25.628774648425
2	52449	4.664	25.628774648425
2	52517	4.67	25.628774648425
2	52573	4.676	25.628774648425
2	52629	4.682	25.628774648425
2	52737	4.688	25.628774648425
2	52795	4.694	25.628774648425
2	52852	4.7	25.628774648425
2	52952	4.706	25.353079629212
2	53018	4.712	24.850019689783
2	53074	4.718	25.591963636045
2	53172	4.724	25.591963636045
2	53240	4.73	25.591963636045
2	53296	4.736	25.591963636045
2	53352	4.742	25.591963636045
2	53460	4.748	25.591963636045
2	53518	4.754	25.591963636045
2	53574	4.76	25.591963636045
2	53674	4.766	25.591963636045
2	53740	4.772	25.591963636045
2	53796	4.778	25.591963636045
2	53894	4.784	25.591963636045
2	53962	4.79	25.591963636045
2	54018	4.796	25.591963636045
2	54075	4.802	24.338748022517
2	54183	4.808	25.157154235841
2	54241	4.814	25.555078419196
2	54297	4.82	25.555078419196
2	54397	4.826	25.555078419196
2	54463	4.832	25.555078419196
2	54519	4.838	25.555078419196
2	54617	4.844	25.555078419196
2	54685	4.85	25.555078419196
2	54741	4.856	25.555078419196
2	54797	4.862	25.555078419196
2	54905	4.868	25.555078419196
2	54963	4.874	25.555078419196
2	55019	4.88	25.555078419196
2	55119	4.886	25.555078419196
2	55185	4.892	25.555078419196
2	55241	4.898	25.555078419196
2	55340	4.904	24.336964047126
2	55408	4.91	25.5883646376
2	55464	4.916	25.518120651125
2	55520	4.922	25.518120651125
2	55628	4.928	25.518120651125
2	55686	4.934	25.518120651125
2	55742	4.94	25.518120651125
2	55842	4.946	25.518120651125
2	55908	4.952	25.518120651125
2	55964	4.958	25.518120651125
2	56062	4.964	25.518120651125
2	56130	4.97	25.518120651125
2	56186	4.976	25.518120651125
2	56242	4.982	25.518120651125
2	56350	4.988	25.518120651125
2	56408	4.994	25.518120651125
2	56467	5	25.518120651125
2	56575	5.006	25.599097810893
2	56641	5.012	24.542123873081
2	56697	5.018	25.481091969586
2	56795	5.024	25.481091969586
2	56863	5.03	25.481091969586
2	56919	5.036	25.481091969586
2	56975	5.042	25.481091969586
2	57083	5.048	25.481091969586
2	57144	5.054	25.481091969586
2	57200	5.06	25.481091969586
2	57300	5.066	25.481091969586
2	57366	5.072	25.481091969586
2	57422	5.078	25.481091969586
2	57520	5.084	25.481091969586
2	57588	5.09	25.481091969586
2	57644	5.096	25.481091969586
2	57701	5.102	25.619218026455
2	57809	5.108	27.671870381259
2	57867	5.114	27.163875754847
2	57923	5.12	27.163875754847
2	58023	5.126	27.163875754847
2	58089	5.132	27.163875754847
2	58145	5.138	27.163875754847
2	58243	5.144	27.163875754847
2	58311	5.15	27.163875754847
2	58367	5.156	27.163875754847
2	58423	5.162	27.163875754847
2	58531	5.168	27.163875754847
2	58589	5.174	27.163875754847
2	58645	5.18	27.163875754847
2	58745	5.186	27.163875754847
2	58811	5.192	27.163875754847
2	58867	5.198	27.163875754847
2	58966	5.204	28.292723591076
2	59034	5.21	26.467526038757
2	59090	5.216	27.12671009766
2	59146	5.222	27.12671009766
2	59254	5.228	27.12671009766
2	59312	5.234	27.12671009766
2	59368	5.24	27.12671009766
2	59468	5.246	27.12671009766
2	59534	5.252	27.12671009766
2	59590	5.258	27.12671009766
2	59688	5.264	27.12671009766
2	59756	5.27	27.12671009766
2	59812	5.276	27.12671009766
2	59868	5.282	27.12671009766
2	59976	5.288	27.12671009766
2	60034	5.294	27.12671009766
2	60091	5.3	27.12671009766
2	60191	5.306	26.696527619386
2	60257	5.312	27.548036270284
2	60313	5.318	27.089478347323
2	60411	5.324	27.089478347323
2	60479	5.33	27.089478347323
2	60535	5.336	27.089478347323
2	60591	5.342	27.089478347323
2	60699	5.348	27.089478347323
2	60757	5.354	27.089478347323
2	60813	5.36	27.089478347323
2	60913	5.366	27.089478347323
2	60979	5.372	27.089478347323
2	61035	5.378	27.089478347323
2	61133	5.384	27.089478347323
2	61201	5.39	27.089478347323
2	61257	5.396	27.089478347323
2	61314	5.402	27.177857150482
2	61422	5.408	27.761406338191
2	61480	5.414	27.052182079657
2	61536	5.42	27.052182079657
2	61636	5.426	27.052182079657
2	61702	5.432	27.052182079657
2	61758	5.438	27.052182079657
2	61856	5.444	27.052182079657
2	61924	5.45	27.052182079657
2	61980	5.456	27.052182079657
2	62036	5.462	27.052182079657
2	62144	5.468	27.052182079657
2	62202	5.474	27.052182079657
2	62258	5.48	27.052182079657
2	62358	5.486	27.052182079657
2	62424	5.492	27.052182079657
2	62480	5.498	27.052182079657
2	62579	5.504	27.117116164329
2	62647	5.51	27.47254903764
2	62703	5.516	27.014822855032
2	62759	5.522	27.014822855032
2	62867	5.528	27.014822855032
2	62925	5.534	27.014822855032
2	62981	5.54	27.014822855032
2	63081	5.546	27.014822855032
2	63147	5.552	27.014822855032
2	63203	5.558	27.014822855032
2	63301	5.564	27.014822855032
2	63369	5.57	27.014822855032
2	63425	5.576	27.014822855032
2	63481	5.582	27.014822855032
2	63589	5.588	27.014822855032
2	63647	5.594	27.014822855032
2	63704	5.6	27.014822855032
2	63804	5.606	25.497338468722
2	63870	5.612	27.476189260649
2	63926	5.618	26.977402218389
2	64024	5.624	26.977402218389
2	64092	5.63	26.977402218389
2	64148	5.636	26.977402218389
2	64204	5.642	26.977402218389
2	64312	5.648	26.977402218389
2	64370	5.654	26.977402218389
2	64426	5.66	26.977402218389
2	64526	5.666	26.977402218389
2	64592	5.672	26.977402218389
2	64648	5.678	26.977402218389
2	64746	5.684	26.977402218389
2	64814	5.69	26.977402218389
2	64870	5.696	26.977402218389
2	64927	5.702	27.713024630356
2	65035	5.708	28.08992148953
2	65093	5.714	26.939921699257
2	65149	5.72	26.939921699257
2	65249	5.726	26.939921699257
2	65315	5.732	26.939921699257
2	65371	5.738	26.939921699257
2	65469	5.744	26.939921699257
2	65537	5.75	26.939921699257
2	65593	5.756	26.939921699257
2	65649	5.762	26.939921699257
2	65757	5.768	26.939921699257
2	65815	5.774	26.939921699257
2	65871	5.78	26.939921699257
2	65971	5.786	26.939921699257
2	66037	5.792	26.939921699257
2	66093	5.798	26.939921699257
2	66192	5.804	25.463794843864
2	66260	5.81	27.02740395406
2	66316	5.816	26.913076485511
2	66372	5.822	26.913076485511
2	66480	5.828	26.913076485511
2	66538	5.834	26.913076485511
2	66594	5.84	26.913076485511
2	66694	5.846	26.913076485511
2	66760	5.852	26.913076485511
2	66816	5.858	26.913076485511
2	66914	5.864	26.913076485511
2	66982	5.87	26.913076485511
2	67038	5.876	26.913076485511
2	67094	5.882	26.913076485511
2	67202	5.888	26.913076485511
2	67260	5.894	26.913076485511
2	67317	5.9	26.913076485511
2	67417	5.906	27.694150785731
2	67483	5.912	26.428172210061
2	67539	5.918	26.875480728515
2	67637	5.924	26.875480728515
2	67705	5.93	26.875480728515
2	67761	5.936	26.875480728515
2	67817	5.942	26.875480728515
2	67925	5.948	26.875480728515
2	67983	5.954	26.875480728515
2	68039	5.96	26.875480728515
2	68139	5.966	26.875480728515
2	68205	5.972	26.875480728515
2	68261	5.978	26.875480728515
2	68359	5.984	26.875480728515
2	68427	5.99	26.875480728515
2	68483	5.996	26.875480728515
2	68550	6.002	28.543320513777
2	68658	6.008	27.566056012011
2	68716	6.014	26.837829585477
2	68772	6.02	26.837829585477
2	68872	6.026	26.837829585477
2	68938	6.032	26.837829585477
2	68994	6.038	26.837829585477
2	69092	6.044	26.837829585477
2	69163	6.05	26.837829585477
2	69219	6.056	26.837829585477
2	69275	6.062	26.837829585477
2	69383	6.068	26.837829585477
2	69441	6.074	26.837829585477
2	69497	6.08	26.837829585477
2	69597	6.086	26.837829585477
2	69663	6.092	26.837829585477
2	69719	6.098	26.837829585477
2	69818	6.104	27.053363412054
2	69886	6.11	25.965243840877
2	69942	6.116	26.800124524611
2	69998	6.122	26.800124524611
2	70106	6.128	26.800124524611
2	70164	6.134	26.800124524611
2	70220	6.14	26.800124524611
2	70320	6.146	26.800124524611
2	70386	6.152	26.800124524611
2	70442	6.158	26.800124524611
2	70540	6.164	26.800124524611
2	70608	6.17	26.800124524611
2	70664	6.176	26.800124524611
2	70720	6.182	26.800124524611
2	70828	6.188	26.800124524611
2	70886	6.194	26.800124524611
2	70943	6.2	26.800124524611
2	71043	6.206	27.563076502643
2	71109	6.212	26.022141162621
2	71165	6.218	26.762366998894
2	71263	6.224	26.762366998894
2	71331	6.23	26.762366998894
2	71387	6.236	26.762366998894
2	71443	6.242	26.762366998894
2	71551	6.248	26.762366998894
2	71609	6.254	26.762366998894
2	71665	6.26	26.762366998894
2	71765	6.266	26.762366998894
2	71831	6.272	26.762366998894
2	71887	6.278	26.762366998894
2	71985	6.284	26.762366998894
2	72053	6.29	26.762366998894
2	72109	6.296	26.762366998894
2	72166	6.302	26.642157169365
2	72274	6.308	26.950608745694
2	72333	6.314	26.724558446109
2	72389	6.32	26.724558446109
2	72445	6.326	26.724558446109
2	72501	6.332	26.724558446109
2	72557	6.338	26.724558446109
2	72613	6.344	26.724558446109
2	72669	6.35	26.724558446109
2	72725	6.356	26.724558446109
2	72781	6.362	26.724558446109
2	72837	6.368	26.724558446109
2	72893	6.374	26.724558446109
2	72949	6.38	26.724558446109
2	73005	6.386	26.724558446109
2	73061	6.392	26.724558446109
2	73117	6.398	26.724558446109
2	73174	6.404	27.480801477713
2	73230	6.41	17.359700770625
2	73286	6.416	16.244594919863
2	73342	6.422	16.244594919863
2	73398	6.428	16.244594919863
2	73454	6.434	16.244594919863
2	73510	6.44	16.244594919863
2	73566	6.446	16.244594919863
2	73622	6.452	16.244594919863
2	73678	6.458	16.244594919863
2	73734	6.464	16.244594919863
2	73790	6.47	16.244594919863
2	73846	6.476	16.244594919863
2	73902	6.482	16.244594919863
2	73958	6.488	16.244594919863
2	74014	6.494	16.244594919863
2	74071	6.5	16.244594919863
2	74127	6.506	15.117761762631
2	74183	6.512	16.050917332504
2	74239	6.518	16.206688565763
2	74295	6.524	16.206688565763
2	74351	6.53	16.206688565763
2	74407	6.536	16.206688565763
2	74463	6.542	16.206688565763
2	74519	6.548	16.206688565763
2	74575	6.554	16.206688565763
2	74631	6.56	16.206688565763
2	74687	6.566	16.206688565763
2	74743	6.572	16.206688565763
2	74799	6.578	16.206688565763
2	74855	6.584	16.206688565763
2	74911	6.59	16.206688565763
2	74967	6.596	16.206688565763
2	75024	6.602	16.516826600841
2	75080	6.608	16.116141575148
2	75136	6.614	16.168735407273
2	75192	6.62	16.168735407273
2	75248	6.626	16.168735407273
2	75304	6.632	16.168735407273
2	75360	6.638	16.168735407273
2	75416	6.644	16.168735407273
2	75472	6.65	16.168735407273
2	75528	6.656	16.168735407273
2	75584	6.662	16.168735407273
2	75640	6.668	16.168735407273
2	75696	6.674	16.168735407273
2	75752	6.68	16.168735407273
2	75808	6.686	16.168735407273
2	75864	6.692	16.168735407273
2	75920	6.698	16.168735407273
2	75977	6.704	15.451793524262
2	76033	6.71	17.110669217442
2	76089	6.716	16.130736821903
2	76145	6.722	16.130736821903
2	76201	6.728	16.130736821903
2	76257	6.734	16.130736821903
2	76313	6.74	16.130736821903
2	76369	6.746	16.130736821903
2	76425	6.752	16.130736821903
2	76481	6.758	16.130736821903
2	76537	6.764	16.130736821903
2	76593	6.77	16.130736821903
2	76649	6.776	16.130736821903
2	76705	6.782	16.130736821903
2	76761	6.788	16.130736821903
2	76817	6.794	16.130736821903
2	76874	6.8	16.130736821903
2	76930	6.806	16.058699466153
2	76986	6.812	16.031780391867
2	77042	6.818	16.092694172228
2	77098	6.824	16.092694172228
2	77154	6.83	16.092694172228
2	77210	6.836	16.092694172228
[...]
5	180014	16.208	34.831232170274
5	180073	16.214	34.831232170274
5	180129	16.22	34.831232170274
5	180185	16.226	34.831232170274
5	180241	16.232	34.831232170274
5	180297	16.238	34.831232170274
5	180353	16.244	34.831232170274
5	180409	16.25	34.831232170274
5	180465	16.256	34.831232170274
5	180521	16.262	34.831232170274
5	180577	16.268	34.831232170274
5	180633	16.274	34.831232170274
5	180689	16.28	34.831232170274
5	180745	16.286	34.831232170274
5	180801	16.292	34.831232170274
5	180857	16.298	34.831232170274
5	180914	16.304	35.068410306643
5	180970	16.31	34.819257245184
5	181026	16.316	34.819257245184
5	181082	16.322	34.819257245184
5	181138	16.328	34.819257245184
5	181194	16.334	34.819257245184
5	181250	16.34	34.819257245184
5	181306	16.346	34.819257245184
5	181362	16.352	34.819257245184
5	181418	16.358	34.819257245184
5	181474	16.364	34.819257245184
5	181530	16.37	34.819257245184
5	181586	16.376	34.819257245184
5	181642	16.382	34.819257245184
5	181698	16.388	34.819257245184
5	181754	16.394	34.819257245184
5	181811	16.4	34.819257245184
5	181867	16.406	34.638109986432
5	181923	16.412	34.807138160154
5	181979	16.418	34.807138160154
5	182035	16.424	34.807138160154
5	182091	16.43	34.807138160154
5	182147	16.436	34.807138160154
5	182203	16.442	34.807138160154
5	182259	16.448	34.807138160154
5	182315	16.454	34.807138160154
5	182371	16.46	34.807138160154
5	182427	16.466	34.807138160154
5	182483	16.472	34.807138160154
5	182539	16.478	34.807138160154
5	182595	16.484	34.807138160154
5	182651	16.49	34.807138160154
5	182707	16.496	34.807138160154
5	182764	16.502	29.826961251819
5	182820	16.508	30.46091280993
5	182876	16.514	30.46091280993
5	182932	16.52	30.46091280993
5	182988	16.526	30.46091280993
5	183044	16.532	30.46091280993
5	183100	16.538	30.46091280993
5	183156	16.544	30.46091280993
5	183212	16.55	30.46091280993
5	183268	16.556	30.46091280993
5	183324	16.562	30.46091280993
5	183380	16.568	30.46091280993
5	183436	16.574	30.46091280993
5	183492	16.58	30.46091280993
5	183548	16.586	30.46091280993
5	183604	16.592	30.46091280993
5	183660	16.598	30.46091280993
5	183717	16.604	29.415427170864
5	183773	16.61	30.448507333312
5	183829	16.616	30.448507333312
5	183885	16.622	30.448507333312
5	183941	16.628	30.448507333312
5	183997	16.634	30.448507333312
5	184053	16.64	30.448507333312
5	184109	16.646	30.448507333312
5	184165	16.652	30.448507333312
5	184221	16.658	30.448507333312
5	184277	16.664	30.448507333312
5	184333	16.67	30.448507333312
5	184389	16.676	30.448507333312
5	184445	16.682	30.448507333312
5	184501	16.688	30.448507333312
5	184557	16.694	30.448507333312
5	184614	16.7	30.448507333312
5	184670	16.706	30.395177712839
5	184726	16.712	30.435959635731
5	184782	16.718	30.435959635731
5	184838	16.724	30.435959635731
5	184894	16.73	30.435959635731
5	184950	16.736	30.435959635731
5	185006	16.742	30.435959635731
5	185062	16.748	30.435959635731
5	185118	16.754	30.435959635731
5	185174	16.76	30.435959635731
5	185230	16.766	30.435959635731
5	185286	16.772	30.435959635731
5	185342	16.778	30.435959635731
5	185398	16.784	30.435959635731
5	185454	16.79	30.435959635731
5	185510	16.796	30.435959635731
5	185567	16.802	30.047924128972
5	185623	16.808	30.423270374029
5	185732	16.814	30.423270374029
5	185790	16.82	30.423270374029
5	185846	16.826	30.423270374029
5	185946	16.832	30.423270374029
5	186012	16.838	30.423270374029
5	186068	16.844	30.423270374029
5	186166	16.85	30.423270374029
5	186234	16.856	30.423270374029
5	186290	16.862	30.423270374029
5	186346	16.868	30.423270374029
5	186454	16.874	30.423270374029
5	186512	16.88	30.423270374029
5	186568	16.886	30.423270374029
5	186668	16.892	30.423270374029
5	186734	16.898	30.423270374029
5	186791	16.904	27.239479521405
5	186889	16.91	27.301852068089
5	186957	16.916	27.301852068089
5	187013	16.922	27.301852068089
5	187069	16.928	27.301852068089
5	187177	16.934	27.301852068089
5	187235	16.94	27.301852068089
5	187291	16.946	27.301852068089
5	187391	16.952	27.301852068089
5	187457	16.958	27.301852068089
5	187513	16.964	27.301852068089
5	187611	16.97	27.301852068089
5	187679	16.976	27.301852068089
5	187735	16.982	27.301852068089
5	187791	16.988	27.301852068089
5	187899	16.994	27.301852068089
5	187960	17	27.301852068089
5	188024	17.006	27.398577205207
5	188124	17.012	27.288881668886
5	188190	17.018	27.288881668886
5	188246	17.024	27.288881668886
5	188344	17.03	27.288881668886
5	188412	17.036	27.288881668886
5	188468	17.042	27.288881668886
5	188524	17.048	27.288881668886
5	188635	17.054	27.288881668886
5	188693	17.06	27.288881668886
5	188749	17.066	27.288881668886
5	188849	17.072	27.288881668886
5	188915	17.078	27.288881668886
5	188971	17.084	27.288881668886
5	189069	17.09	27.288881668886
5	189137	17.096	27.288881668886
5	189194	17.102	26.120811511194
5	189250	17.108	27.275771706154
5	189358	17.114	27.275771706154
5	189416	17.12	27.275771706154
5	189472	17.126	27.275771706154
5	189572	17.132	27.275771706154
5	189638	17.138	27.275771706154
5	189694	17.144	27.275771706154
5	189792	17.15	27.275771706154
5	189860	17.156	27.275771706154
5	189916	17.162	27.275771706154
5	189972	17.168	27.275771706154
5	190080	17.174	27.275771706154
5	190138	17.18	27.275771706154
5	190194	17.186	27.275771706154
5	190294	17.192	27.275771706154
5	190360	17.198	27.275771706154
5	190417	17.204	26.684102881788
5	190515	17.21	27.262522856428
5	190583	17.216	27.262522856428
5	190639	17.222	27.262522856428
5	190695	17.228	27.262522856428
5	190803	17.234	27.262522856428
5	190861	17.24	27.262522856428
5	190917	17.246	27.262522856428
5	191017	17.252	27.262522856428
5	191083	17.258	27.262522856428
5	191139	17.264	27.262522856428
5	191237	17.27	27.262522856428
5	191305	17.276	27.262522856428
5	191361	17.282	27.262522856428
5	191417	17.288	27.262522856428
5	191525	17.294	27.262522856428
5	191584	17.3	27.262522856428
5	191640	17.306	22.264128935833
5	191740	17.312	22.242376680883
5	191806	17.318	22.242376680883
5	191862	17.324	22.242376680883
5	191960	17.33	22.242376680883
5	192028	17.336	22.242376680883
5	192084	17.342	22.242376680883
5	192140	17.348	22.242376680883
5	192248	17.354	22.242376680883
5	192306	17.36	22.242376680883
5	192362	17.366	22.242376680883
5	192462	17.372	22.242376680883
5	192528	17.378	22.242376680883
5	192584	17.384	22.242376680883
5	192682	17.39	22.242376680883
5	192750	17.396	22.242376680883
5	192807	17.402	21.898476012895
5	192863	17.408	22.277250975261
5	192971	17.414	22.277250975261
5	193029	17.42	22.277250975261
5	193085	17.426	22.277250975261
5	193185	17.432	22.277250975261
5	193251	17.438	22.277250975261
5	193307	17.444	22.277250975261
5	193405	17.45	22.277250975261
5	193473	17.456	22.277250975261
5	193529	17.462	22.277250975261
5	193585	17.468	22.277250975261
5	193693	17.474	22.277250975261
5	193751	17.48	22.277250975261
5	193807	17.486	22.277250975261
5	193907	17.492	22.277250975261
5	193973	17.498	22.277250975261
5	194030	17.504	23.234888276946
5	194128	17.51	22.328740620356
5	194196	17.516	22.328740620356
5	194252	17.522	22.328740620356
5	194308	17.528	22.328740620356
5	194416	17.534	22.328740620356
5	194474	17.54	22.328740620356
5	194530	17.546	22.328740620356
5	194630	17.552	22.328740620356
5	194696	17.558	22.328740620356
5	194752	17.564	22.328740620356
5	194850	17.57	22.328740620356
5	194918	17.576	22.328740620356
5	194974	17.582	22.328740620356
5	195030	17.588	22.328740620356
5	195138	17.594	22.328740620356
5	195197	17.6	22.328740620356
5	195253	17.606	25.532135870685
5	195353	17.612	25.109686413454
5	195419	17.618	25.109686413454
5	195475	17.624	25.109686413454
5	195573	17.63	25.109686413454
5	195641	17.636	25.109686413454
5	195697	17.642	25.109686413454
5	195753	17.648	25.109686413454
5	195861	17.654	25.109686413454
5	195919	17.66	25.109686413454
5	195975	17.666	25.109686413454
5	196075	17.672	25.109686413454
5	196141	17.678	25.109686413454
5	196197	17.684	25.109686413454
5	196295	17.69	25.109686413454
5	196363	17.696	25.109686413454
5	196420	17.702	24.64136826318
5	196476	17.708	25.161482664158
5	196584	17.714	25.161482664158
5	196642	17.72	25.161482664158
5	196698	17.726	25.161482664158
5	196798	17.732	25.161482664158
5	196864	17.738	25.161482664158
5	196920	17.744	25.161482664158
5	197018	17.75	25.161482664158
5	197086	17.756	25.161482664158
5	197142	17.762	25.161482664158
5	197198	17.768	25.161482664158
5	197306	17.774	25.161482664158
5	197364	17.78	25.161482664158
5	197420	17.786	25.161482664158
5	197520	17.792	25.161482664158
5	197586	17.798	25.161482664158
5	197643	17.804	25.826504570228
5	197741	17.81	25.213433554549
5	197809	17.816	25.213433554549
5	197865	17.822	25.213433554549
5	197921	17.828	25.213433554549
5	198029	17.834	25.213433554549
5	198087	17.84	25.213433554549
5	198143	17.846	25.213433554549
5	198243	17.852	25.213433554549
5	198309	17.858	25.213433554549
5	198365	17.864	25.213433554549
5	198463	17.87	25.213433554549
5	198531	17.876	25.213433554549
5	198587	17.882	25.213433554549
5	198643	17.888	25.213433554549
5	198751	17.894	25.213433554549
5	198810	17.9	25.213433554549
5	198866	17.906	24.99640728081
5	198966	17.912	25.265539985963
5	199032	17.918	25.265539985963
5	199088	17.924	25.265539985963
5	199186	17.93	25.265539985963
5	199254	17.936	25.265539985963
5	199310	17.942	25.265539985963
5	199366	17.948	25.265539985963
5	199474	17.954	25.265539985963
5	199532	17.96	25.265539985963
5	199588	17.966	25.265539985963
5	199688	17.972	25.265539985963
5	199754	17.978	25.265539985963
5	199810	17.984	25.265539985963
5	199908	17.99	25.265539985963
5	199976	17.996	25.265539985963
5	200043	18.002	28.127580432796
5	200099	18.008	28.79610976938
5	200207	18.014	28.79610976938
5	200265	18.02	28.79610976938
5	200321	18.026	28.79610976938
5	200421	18.032	28.79610976938
5	200487	18.038	28.79610976938
5	200543	18.044	28.79610976938
5	200644	18.05	28.79610976938
5	200712	18.056	28.79610976938
5	200768	18.062	28.79610976938
5	200824	18.068	28.79610976938
5	200932	18.074	28.79610976938
5	200990	18.08	28.79610976938
5	201046	18.086	28.79610976938
5	201146	18.092	28.79610976938
5	201212	18.098	28.79610976938
5	201269	18.104	27.75265774564
5	201367	18.11	28.848530017567
5	201435	18.116	28.848530017567
5	201491	18.122	28.848530017567
5	201547	18.128	28.848530017567
5	201655	18.134	28.848530017567
5	201713	18.14	28.848530017567
5	201769	18.146	28.848530017567
5	201869	18.152	28.848530017567
5	201935	18.158	28.848530017567
5	201991	18.164	28.848530017567
5	202089	18.17	28.848530017567
5	202157	18.176	28.848530017567
5	202213	18.182	28.848530017567
5	202269	18.188	28.848530017567
5	202377	18.194	28.848530017567
5	202436	18.2	28.848530017567
5	202492	18.206	27.665694079918
5	202592	18.212	28.90110855708
5	202654	18.218	28.90110855708
5	202720	18.224	28.90110855708
5	202818	18.23	28.90110855708
5	202886	18.236	28.90110855708
5	202942	18.242	28.90110855708
5	202998	18.248	28.90110855708
5	203106	18.254	28.90110855708
5	203164	18.26	28.90110855708
5	203220	18.266	28.90110855708
5	203320	18.272	28.90110855708
5	203386	18.278	28.90110855708
5	203442	18.284	28.90110855708
5	203540	18.29	28.90110855708
5	203608	18.296	28.90110855708
5	203665	18.302	27.972298392458
5	203721	18.308	28.953846320404
5	203829	18.314	28.953846320404
5	203887	18.32	28.953846320404
5	203943	18.326	28.953846320404
5	204043	18.332	28.953846320404
5	204109	18.338	28.953846320404
5	204165	18.344	28.953846320404
5	204263	18.35	28.953846320404
5	204331	18.356	28.953846320404
5	204387	18.362	28.953846320404
5	204443	18.368	28.953846320404
5	204551	18.374	28.953846320404
5	204609	18.38	28.953846320404
5	204665	18.386	28.953846320404
5	204765	18.392	28.953846320404
5	204831	18.398	28.953846320404
5	204888	18.404	29.512038231994
5	204986	18.41	29.81855063642
5	205054	18.416	29.81855063642
5	205110	18.422	29.81855063642
5	205166	18.428	29.81855063642
5	205274	18.434	29.81855063642
5	205332	18.44	29.81855063642
5	205388	18.446	29.81855063642
5	205488	18.452	29.81855063642
5	205554	18.458	29.81855063642
5	205610	18.464	29.81855063642
5	205708	18.47	29.81855063642
5	205776	18.476	29.81855063642
5	205832	18.482	29.81855063642
5	205888	18.488	29.81855063642
5	205996	18.494	29.81855063642
5	206055	18.5	29.81855063642
5	206111	18.506	28.922773803577
5	206211	18.512	29.871609676924
5	206277	18.518	29.871609676924
5	206333	18.524	29.871609676924
5	206431	18.53	29.871609676924
5	206499	18.536	29.871609676924
5	206555	18.542	29.871609676924
5	206611	18.548	29.871609676924
5	206719	18.554	29.871609676924
5	206777	18.56	29.871609676924
5	206833	18.566	29.871609676924
5	206933	18.572	29.871609676924
5	206999	18.578	29.871609676924
5	207055	18.584	29.871609676924
5	207153	18.59	29.871609676924
5	207221	18.596	29.871609676924
5	207278	18.602	29.427067638615
5	207334	18.608	29.924830787069
5	207442	18.614	29.924830787069
5	207500	18.62	29.924830787069
5	207556	18.626	29.924830787069
5	207656	18.632	29.924830787069
5	207722	18.638	29.924830787069
5	207778	18.644	29.924830787069
5	207876	18.65	29.924830787069
5	207944	18.656	29.924830787069
5	208000	18.662	29.924830787069
5	208056	18.668	29.924830787069
5	208164	18.674	29.924830787069
5	208222	18.68	29.924830787069
5	208278	18.686	29.924830787069
5	208378	18.692	29.924830787069
5	208444	18.698	29.924830787069
5	208501	18.704	29.644071928357
5	208599	18.71	29.978214931886
5	208668	18.716	29.978214931886
5	208724	18.722	29.978214931886
5	208780	18.728	29.978214931886
5	208836	18.734	29.978214931886
5	208892	18.74	29.978214931886
5	208948	18.746	29.978214931886
5	209004	18.752	29.978214931886
5	209060	18.758	29.978214931886
5	209116	18.764	29.978214931886
5	209172	18.77	29.978214931886
5	209228	18.776	29.978214931886
5	209284	18.782	29.978214931886
5	209340	18.788	29.978214931886
5	209396	18.794	29.978214931886
5	209453	18.8	29.978214931886
5	209509	18.806	35.653304669006
5	209565	18.812	36.482996962256
5	209621	18.818	36.482996962256
5	209677	18.824	36.482996962256
5	209733	18.83	36.482996962256
5	209789	18.836	36.482996962256
5	209845	18.842	36.482996962256
5	209901	18.848	36.482996962256
5	209957	18.854	36.482996962256
5	210013	18.86	36.482996962256
5	210069	18.866	36.482996962256
5	210125	18.872	36.482996962256
5	210181	18.878	36.482996962256
5	210237	18.884	36.482996962256
5	210293	18.89	36.482996962256
5	210349	18.896	36.482996962256
5	210406	18.902	35.902168463229
5	210462	18.908	36.53671010506
5	210518	18.914	36.53671010506
5	210574	18.92	36.53671010506
5	210630	18.926	36.53671010506
5	210686	18.932	36.53671010506
5	210742	18.938	36.53671010506
5	210798	18.944	36.53671010506
5	210854	18.95	36.53671010506
5	210910	18.956	36.53671010506
5	210966	18.962	36.53671010506
5	211022	18.968	36.53671010506
5	211078	18.974	36.53671010506
5	211134	18.98	36.53671010506
5	211190	18.986	36.53671010506
5	211246	18.992	36.53671010506
5	211302	18.998	36.53671010506
5	211369	19.004	35.548486087756
5	211425	19.01	36.590589228184
5	211481	19.016	36.590589228184
5	211537	19.022	36.590589228184
5	211593	19.028	36.590589228184
5	211649	19.034	36.590589228184
5	211705	19.04	36.590589228184
5	211761	19.046	36.590589228184
5	211820	19.052	36.590589228184
5	211876	19.058	36.590589228184
5	211932	19.064	36.590589228184
5	211988	19.07	36.590589228184
5	212044	19.076	36.590589228184
5	212100	19.082	36.590589228184
5	212156	19.088	36.590589228184
5	212212	19.094	36.590589228184
5	212269	19.1	36.751395921071
5	212325	19.106	37.18482109028
5	212381	19.112	36.644635330678
5	212437	19.118	36.644635330678
5	212493	19.124	36.644635330678
5	212549	19.13	36.644635330678
5	212605	19.136	36.644635330678
5	212661	19.142	36.644635330678
5	212717	19.148	36.644635330678
5	212773	19.154	36.644635330678
5	212829	19.16	36.644635330678
5	212885	19.166	36.644635330678
5	212941	19.172	36.644635330678
5	212997	19.178	36.644635330678
5	213053	19.184	36.644635330678
5	213109	19.19	36.644635330678
5	213165	19.196	36.644635330678
5	213222	19.202	27.628342859215
5	213278	19.208	29.119464940042
5	213334	19.214	29.119464940042
5	213390	19.22	29.119464940042
5	213446	19.226	29.119464940042
5	213502	19.232	29.119464940042
5	213558	19.238	29.119464940042
5	213614	19.244	29.119464940042
5	213670	19.25	29.119464940042
5	213726	19.256	29.119464940042
5	213782	19.262	29.119464940042
5	213838	19.268	29.119464940042
5	213894	19.274	29.119464940042
5	213950	19.28	29.119464940042
5	214006	19.286	29.119464940042
5	214062	19.292	29.119464940042
5	214118	19.298	29.119464940042
5	214175	19.304	27.934769185511
5	214231	19.31	29.173848033487
5	214287	19.316	29.173848033487
5	214343	19.322	29.173848033487
5	214444	19.328	29.173848033487
5	214510	19.334	29.173848033487
5	214566	19.34	29.173848033487
5	214664	19.346	29.173848033487
5	214732	19.352	29.173848033487
5	214788	19.358	29.173848033487
5	214844	19.364	29.173848033487
5	214952	19.37	29.173848033487
5	215010	19.376	29.173848033487
5	215066	19.382	29.173848033487
5	215166	19.388	29.173848033487
5	215232	19.394	29.173848033487
5	215289	19.4	29.173848033487
5	215387	19.406	27.489295136948
5	215455	19.412	29.228401156296
5	215511	19.418	29.228401156296
5	215567	19.424	29.228401156296
5	215675	19.43	29.228401156296
5	215733	19.436	29.228401156296
5	215789	19.442	29.228401156296
5	215889	19.448	29.228401156296
5	215955	19.454	29.228401156296
5	216011	19.46	29.228401156296
5	216109	19.466	29.228401156296
5	216177	19.472	29.228401156296
5	216233	19.478	29.228401156296
5	216289	19.484	29.228401156296
5	216397	19.49	29.228401156296
5	216455	19.496	29.228401156296
5	216512	19.502	28.688193948869
5	216612	19.508	29.28312534308
5	216678	19.514	29.28312534308
5	216734	19.52	29.28312534308
5	216832	19.526	29.28312534308
5	216900	19.532	29.28312534308
5	216956	19.538	29.28312534308
5	217012	19.544	29.28312534308
5	217120	19.55	29.28312534308
5	217178	19.556	29.28312534308
5	217234	19.562	29.28312534308
5	217334	19.568	29.28312534308
5	217400	19.574	29.28312534308
5	217456	19.58	29.28312534308
5	217554	19.586	29.28312534308
5	217622	19.592	29.28312534308
5	217678	19.598	29.28312534308
5	217735	19.604	38.365404362424
5	217843	19.61	38.598274597771
5	217901	19.616	38.598274597771
5	217957	19.622	38.598274597771
5	218057	19.628	38.598274597771
5	218123	19.634	38.598274597771
5	218179	19.64	38.598274597771
5	218277	19.646	38.598274597771
5	218345	19.652	38.598274597771
5	218401	19.658	38.598274597771
5	218457	19.664	38.598274597771
5	218565	19.67	38.598274597771
5	218623	19.676	38.598274597771
5	218679	19.682	38.598274597771
5	218779	19.688	38.598274597771
5	218845	19.694	38.598274597771
5	218902	19.7	38.598274597771
5	219000	19.706	38.851642388517
5	219068	19.712	38.653344053018
5	219124	19.718	38.653344053018
5	219180	19.724	38.653344053018
5	219288	19.73	38.653344053018
5	219346	19.736	38.653344053018
5	219402	19.742	38.653344053018
5	219502	19.748	38.653344053018
5	219568	19.754	38.653344053018
5	219624	19.76	38.653344053018
5	219722	19.766	38.653344053018
5	219790	19.772	38.653344053018
5	219846	19.778	38.653344053018
5	219902	19.784	38.653344053018
5	220010	19.79	38.653344053018
5	220068	19.796	38.653344053018
5	220125	19.802	38.977371273302
5	220225	19.808	38.70858773135
5	220291	19.814	38.70858773135
5	220347	19.82	38.70858773135
5	220445	19.826	38.70858773135
5	220513	19.832	38.70858773135
5	220569	19.838	38.70858773135
5	220625	19.844	38.70858773135
5	220733	19.85	38.70858773135
5	220791	19.856	38.70858773135
5	220847	19.862	38.70858773135
5	220947	19.868	38.70858773135
5	221013	19.874	38.70858773135
5	221069	19.88	38.70858773135
5	221167	19.886	38.70858773135
5	221235	19.892	38.70858773135
5	221291	19.898	38.70858773135
5	221348	19.904	39.333375854377
5	221456	19.91	38.764006704576
5	221514	19.916	38.764006704576
5	221570	19.922	38.764006704576
5	221670	19.928	38.764006704576
5	221736	19.934	38.764006704576
5	221792	19.94	38.764006704576
5	221890	19.946	38.764006704576
5	221958	19.952	38.764006704576
5	222014	19.958	38.764006704576
5	222070	19.964	38.764006704576
5	222178	19.97	38.764006704576
5	222236	19.976	38.764006704576
5	222292	19.982	38.764006704576
5	222392	19.988	38.764006704576
5	222458	19.994	38.764006704576
5	222517	20	38.764006704576

