version 3
run Urban_Microcell-0-20230220-15:04:53-23676
attr configname Urban_Microcell
attr datetime 20230220-15:04:53
attr datetimef 20230220-150453
attr experiment Urban_Microcell
attr inifile omnetpp.ini
attr iterationvars ""
attr iterationvarsd ""
attr iterationvarsf ""
attr measurement ""
attr network Network
attr processid 23676
attr repetition 0
attr replication #0
attr resultdir results
attr runnumber 0
attr seedset 0
config image-path ../../../images;../../../../inet4.4/images
config extends General
config description "Scenario: Urban Microcell"
config **.scenario "\"URBAN_MICROCELL\""
config network Network
config description "Dual connectivity, secondary only with handover, Voice-over-IP (downlink)"
config image-path ../../../images
config output-scalar-file-append false
config output-vector-file-append false
config sim-time-limit 200s
config seed-set 0
config output-scalar-file results/Urban_Microcell/-0.sca
config output-vector-file results/Urban_Microcell/-0.vec
config **.positionX:vector.vector-recording true
config **.positionY:vector.vector-recording true
config **.servingRSRP:vector.vector-recording true
config **.servingSINR:vector.vector-recording true
config **.servingDistance:vector.vector-recording true
config **.neighborTop1RSRP:vector.vector-recording true
config **.neighborTop1SINR:vector.vector-recording true
config **.neighborTop1Distance:vector.vector-recording true
config **.neighborTop2RSRP:vector.vector-recording true
config **.neighborTop2SINR:vector.vector-recording true
config **.neighborTop2Distance:vector.vector-recording true
config **.nrPhy.averageCqiDl:vector.vector-recording true
config **.nrRlc.um.rlcThroughputDl:vector.vector-recording true
config **.nrMac.macThroughputDl:vector.vector-recording true
config **.voIPReceivedThroughput:vector.vector-recording true
config **.ue[*].cellularNic.nrPhy.hysteresisFactor.param-record-as-scalar true
config **.hysteresisFactor.scalar-recording true
config **.scalar-recording false
config **.vector-recording false
config *.channelControl.carrierFrequency 39GHz
config *.channelControl.numChannels 8
config *.channelControl.pMax 20mW
config *.channelControl.sat -110dBm
config *.channelControl.alpha 2
config *.channelControl.propagationModel "\"RiceModel\""
config *.carrierAggregation.numComponentCarriers 1
config *.carrierAggregation.componentCarrier[*].numBands 6
config *.carrierAggregation.componentCarrier[*].numerologyIndex 0
config *.carrierAggregation.componentCarrier[*].useTdd false
config *.binder.blerShift 0
config *.binder.maxDataRatePerRb 1.16Mbps
config *.masterEnb.txPower 100mw
config *.gnb*.cellInfo.microCell true
config **.ueTxPower 26
config **.eNodeBTxPower 46
config **.microTxPower 30
config **.txDirection "\"OMNI\""
config **.txAngle 0
config **.targetBler 0.01
config *.masterEnb.nicType "\"LteNicEnbD2D\""
config *.masterEnb.cellularNic.LtePdcpRrcType "\"NRPdcpRrcEnb\""
config *.gnb*.masterId 1
config **.dualConnectivityEnabled true
config **.numCarriers 1
config **.numNRCarriers 1
config **.shadowing true
config **.nodeb_height 25
config **.building_height 20
config **.inside_building false
config **.street_wide 20
config **.ue_height 1.5
config **.tolerateMaxDistViolation false
config **.correlation_distance 50
config **.antennaGainUe 0
config **.antennGainEnB 18
config **.antennGainMicro 5
config **.thermalNoise -104.5
config **.ue_noise_figure 7
config **.bs_noise_figure 5
config **.cable_loss 2
config **.dynamic_los false
config **.fixed_los false
config **.fading true
config **.fading_type "\"JAKES\""
config **.fading_paths 6
config **.delay_rms 363e-9
config **.bgCell_interference true
config **.extCell_interference true
config **.downlink_interference true
config **.uplink_interference true
config **.enable_extCell_los false
config **.useBuildingPenetrationLossHighLossModel false
config *.numBgCells 1
config *.bgCell[*].bgScheduler.isNr true
config *.bgCell[*].bgScheduler.txPower 46
config *.bgCell[*].bgScheduler.txDirection "\"OMNI\""
config *.bgCell[*].bgScheduler.txAngle 0
config *.bgCell[*].bgScheduler.numerologyIndex 0
config *.bgCell[*].bgScheduler.carrierFrequency 2GHz
config *.bgCell[*].bgScheduler.numBands 6
config *.bgCell[*].mobility.initialX 235m
config *.bgCell[*].mobility.initialY 120m
config *.bgCell[*].bgTrafficGenerator.numBgUes 50
config *.bgCell[*].bgTrafficGenerator.computeAvgInterference true
config *.bgCell[*].bgTrafficGenerator.bgUE[*].mobility.initialX normal(235m,120m)
config *.bgCell[*].bgTrafficGenerator.bgUE[*].mobility.initialY normal(235m,120m)
config *.bgCell[*].bgTrafficGenerator.bgUE[*].trafficGeneratorType "\"TrafficGeneratorCbr\""
config *.bgCell[*].bgTrafficGenerator.bgUE[*].generator.startTimeDl uniform(0s,0.05s)
config *.bgCell[*].bgTrafficGenerator.bgUE[*].generator.packetSizeDl 1000B
config *.bgCell[*].bgTrafficGenerator.bgUE[*].generator.periodDl 0.01s
config *.configurator.config "xmldoc(\"./demo.xml\")"
config **.sctp.nagleEnabled false
config **.sctp.enableHeartbeats false
config *.masterEnb.numX2Apps 5
config *.gnb*.numX2Apps 1
config **.x2App[*].server.localPort "5000 + ancestorIndex(1)"
config *.masterEnb.x2App[0].client.connectAddress "\"gnb152%x2ppp0\""
config *.masterEnb.x2App[1].client.connectAddress "\"gnb425%x2ppp0\""
config *.masterEnb.x2App[2].client.connectAddress "\"gnb508%x2ppp0\""
config *.masterEnb.x2App[3].client.connectAddress "\"gnb686%x2ppp0\""
config *.masterEnb.x2App[4].client.connectAddress "\"gnb907%x2ppp0\""
config *.gnb152.x2App[0].client.connectAddress "\"masterEnb%x2ppp0\""
config *.gnb425.x2App[0].client.connectAddress "\"masterEnb%x2ppp1\""
config *.gnb508.x2App[0].client.connectAddress "\"masterEnb%x2ppp2\""
config *.gnb686.x2App[0].client.connectAddress "\"masterEnb%x2ppp3\""
config *.gnb907.x2App[0].client.connectAddress "\"masterEnb%x2ppp4\""
config **.dynamicCellAssociation true
config *.numUe 1
config *.ue[*].masterId 1
config *.ue[*].macCellId 1
config *.ue[*].nrMasterId 2
config *.ue[*].nrMacCellId 2
config *.ue[*].mobility.typename RectangleMobility
config *.ue[*].mobility.speed 30mps
config *.ue[*].mobility.startPos 3
config *.ue[*].mobility.constraintAreaMaxX 370m
config *.ue[*].mobility.constraintAreaMaxY 200m
config *.ue[*].mobility.constraintAreaMinX 80m
config *.ue[*].mobility.constraintAreaMinY 60m
config *.ue[*].mobility.constraintAreaMinZ 0m
config *.ue[*].mobility.constraintAreaMaxZ 0m
config *.gnb*.cellularNic.phy.enableHandover true
config *.ue[*].cellularNic.nrPhy.enableHandover true
config **.handoverLatency 0.05s
config **.hysteresisFactor 10
config **.losslessHandover false
config *.ue[*].numApps 1
config *.ue[*].app[*].typename VoIPReceiver
config *.ue[*].app[*].localPort 3000+ancestorIndex(0)
config *.server.numApps 1
config *.server.app[*].typename VoIPSender
config *.server.app[*].PacketSize 40
config *.server.app[*].destAddress "\"ue[0]\""
config *.server.app[*].localPort 3088+ancestorIndex(0)
config *.server.app[*].destPort 3000+ancestorIndex(0)
config *.server.app[*].startTime uniform(0s,0.02s)
config *.server.app[*].tos 10

par Network.server.pppg$o[0].channel typename "\"inet.node.ethernet.Eth10G\""
par Network.server.pppg$o[0].channel disabled false
attr mutable ""
par Network.server.pppg$o[0].channel delay 5e-08s
attr mutable ""
attr unit s
par Network.server.pppg$o[0].channel datarate 1e+10bps
attr mutable ""
attr unit bps
par Network.server.pppg$o[0].channel ber 0
attr mutable ""
par Network.server.pppg$o[0].channel per 0
attr mutable ""
par Network.server.pppg$o[0].channel length 10m
attr unit m
par Network.router.pppg$o[0].channel typename "\"inet.node.ethernet.Eth10G\""
par Network.router.pppg$o[0].channel disabled false
attr mutable ""
par Network.router.pppg$o[0].channel delay 5e-08s
attr mutable ""
attr unit s
par Network.router.pppg$o[0].channel datarate 1e+10bps
attr mutable ""
attr unit bps
par Network.router.pppg$o[0].channel ber 0
attr mutable ""
par Network.router.pppg$o[0].channel per 0
attr mutable ""
par Network.router.pppg$o[0].channel length 10m
attr unit m
par Network.router.pppg$o[1].channel typename "\"inet.node.ethernet.Eth10G\""
par Network.router.pppg$o[1].channel disabled false
attr mutable ""
par Network.router.pppg$o[1].channel delay 5e-08s
attr mutable ""
attr unit s
par Network.router.pppg$o[1].channel datarate 1e+10bps
attr mutable ""
attr unit bps
par Network.router.pppg$o[1].channel ber 0
attr mutable ""
par Network.router.pppg$o[1].channel per 0
attr mutable ""
par Network.router.pppg$o[1].channel length 10m
attr unit m
par Network.pgw.filterGate$o.channel typename "\"inet.node.ethernet.Eth10G\""
par Network.pgw.filterGate$o.channel disabled false
attr mutable ""
par Network.pgw.filterGate$o.channel delay 5e-08s
attr mutable ""
attr unit s
par Network.pgw.filterGate$o.channel datarate 1e+10bps
attr mutable ""
attr unit bps
par Network.pgw.filterGate$o.channel ber 0
attr mutable ""
par Network.pgw.filterGate$o.channel per 0
attr mutable ""
par Network.pgw.filterGate$o.channel length 10m
attr unit m
par Network.pgw.pppg$o[0].channel typename "\"inet.node.ethernet.Eth10G\""
par Network.pgw.pppg$o[0].channel disabled false
attr mutable ""
par Network.pgw.pppg$o[0].channel delay 5e-08s
attr mutable ""
attr unit s
par Network.pgw.pppg$o[0].channel datarate 1e+10bps
attr mutable ""
attr unit bps
par Network.pgw.pppg$o[0].channel ber 0
attr mutable ""
par Network.pgw.pppg$o[0].channel per 0
attr mutable ""
par Network.pgw.pppg$o[0].channel length 10m
attr unit m
par Network.masterEnb.ppp$o.channel typename "\"inet.node.ethernet.Eth10G\""
par Network.masterEnb.ppp$o.channel disabled false
attr mutable ""
par Network.masterEnb.ppp$o.channel delay 5e-08s
attr mutable ""
attr unit s
par Network.masterEnb.ppp$o.channel datarate 1e+10bps
attr mutable ""
attr unit bps
par Network.masterEnb.ppp$o.channel ber 0
attr mutable ""
par Network.masterEnb.ppp$o.channel per 0
attr mutable ""
par Network.masterEnb.ppp$o.channel length 10m
attr unit m
par Network.masterEnb.x2$o[0].channel typename "\"inet.node.ethernet.Eth10G\""
par Network.masterEnb.x2$o[0].channel disabled false
attr mutable ""
par Network.masterEnb.x2$o[0].channel delay 5e-08s
attr mutable ""
attr unit s
par Network.masterEnb.x2$o[0].channel datarate 1e+10bps
attr mutable ""
attr unit bps
par Network.masterEnb.x2$o[0].channel ber 0
attr mutable ""
par Network.masterEnb.x2$o[0].channel per 0
attr mutable ""
par Network.masterEnb.x2$o[0].channel length 10m
attr unit m
par Network.gnb152.x2$o[0].channel typename "\"inet.node.ethernet.Eth10G\""
par Network.gnb152.x2$o[0].channel disabled false
attr mutable ""
par Network.gnb152.x2$o[0].channel delay 5e-08s
attr mutable ""
attr unit s
par Network.gnb152.x2$o[0].channel datarate 1e+10bps
attr mutable ""
attr unit bps
par Network.gnb152.x2$o[0].channel ber 0
attr mutable ""
par Network.gnb152.x2$o[0].channel per 0
attr mutable ""
par Network.gnb152.x2$o[0].channel length 10m
attr unit m
par Network.masterEnb.x2$o[1].channel typename "\"inet.node.ethernet.Eth10G\""
par Network.masterEnb.x2$o[1].channel disabled false
attr mutable ""
par Network.masterEnb.x2$o[1].channel delay 5e-08s
attr mutable ""
attr unit s
par Network.masterEnb.x2$o[1].channel datarate 1e+10bps
attr mutable ""
attr unit bps
par Network.masterEnb.x2$o[1].channel ber 0
attr mutable ""
par Network.masterEnb.x2$o[1].channel per 0
attr mutable ""
par Network.masterEnb.x2$o[1].channel length 10m
attr unit m
par Network.gnb425.x2$o[0].channel typename "\"inet.node.ethernet.Eth10G\""
par Network.gnb425.x2$o[0].channel disabled false
attr mutable ""
par Network.gnb425.x2$o[0].channel delay 5e-08s
attr mutable ""
attr unit s
par Network.gnb425.x2$o[0].channel datarate 1e+10bps
attr mutable ""
attr unit bps
par Network.gnb425.x2$o[0].channel ber 0
attr mutable ""
par Network.gnb425.x2$o[0].channel per 0
attr mutable ""
par Network.gnb425.x2$o[0].channel length 10m
attr unit m
par Network.masterEnb.x2$o[2].channel typename "\"inet.node.ethernet.Eth10G\""
par Network.masterEnb.x2$o[2].channel disabled false
attr mutable ""
par Network.masterEnb.x2$o[2].channel delay 5e-08s
attr mutable ""
attr unit s
par Network.masterEnb.x2$o[2].channel datarate 1e+10bps
attr mutable ""
attr unit bps
par Network.masterEnb.x2$o[2].channel ber 0
attr mutable ""
par Network.masterEnb.x2$o[2].channel per 0
attr mutable ""
par Network.masterEnb.x2$o[2].channel length 10m
attr unit m
par Network.gnb508.x2$o[0].channel typename "\"inet.node.ethernet.Eth10G\""
par Network.gnb508.x2$o[0].channel disabled false
attr mutable ""
par Network.gnb508.x2$o[0].channel delay 5e-08s
attr mutable ""
attr unit s
par Network.gnb508.x2$o[0].channel datarate 1e+10bps
attr mutable ""
attr unit bps
par Network.gnb508.x2$o[0].channel ber 0
attr mutable ""
par Network.gnb508.x2$o[0].channel per 0
attr mutable ""
par Network.gnb508.x2$o[0].channel length 10m
attr unit m
par Network.masterEnb.x2$o[3].channel typename "\"inet.node.ethernet.Eth10G\""
par Network.masterEnb.x2$o[3].channel disabled false
attr mutable ""
par Network.masterEnb.x2$o[3].channel delay 5e-08s
attr mutable ""
attr unit s
par Network.masterEnb.x2$o[3].channel datarate 1e+10bps
attr mutable ""
attr unit bps
par Network.masterEnb.x2$o[3].channel ber 0
attr mutable ""
par Network.masterEnb.x2$o[3].channel per 0
attr mutable ""
par Network.masterEnb.x2$o[3].channel length 10m
attr unit m
par Network.gnb686.x2$o[0].channel typename "\"inet.node.ethernet.Eth10G\""
par Network.gnb686.x2$o[0].channel disabled false
attr mutable ""
par Network.gnb686.x2$o[0].channel delay 5e-08s
attr mutable ""
attr unit s
par Network.gnb686.x2$o[0].channel datarate 1e+10bps
attr mutable ""
attr unit bps
par Network.gnb686.x2$o[0].channel ber 0
attr mutable ""
par Network.gnb686.x2$o[0].channel per 0
attr mutable ""
par Network.gnb686.x2$o[0].channel length 10m
attr unit m
par Network.masterEnb.x2$o[4].channel typename "\"inet.node.ethernet.Eth10G\""
par Network.masterEnb.x2$o[4].channel disabled false
attr mutable ""
par Network.masterEnb.x2$o[4].channel delay 5e-08s
attr mutable ""
attr unit s
par Network.masterEnb.x2$o[4].channel datarate 1e+10bps
attr mutable ""
attr unit bps
par Network.masterEnb.x2$o[4].channel ber 0
attr mutable ""
par Network.masterEnb.x2$o[4].channel per 0
attr mutable ""
par Network.masterEnb.x2$o[4].channel length 10m
attr unit m
par Network.gnb907.x2$o[0].channel typename "\"inet.node.ethernet.Eth10G\""
par Network.gnb907.x2$o[0].channel disabled false
attr mutable ""
par Network.gnb907.x2$o[0].channel delay 5e-08s
attr mutable ""
attr unit s
par Network.gnb907.x2$o[0].channel datarate 1e+10bps
attr mutable ""
attr unit bps
par Network.gnb907.x2$o[0].channel ber 0
attr mutable ""
par Network.gnb907.x2$o[0].channel per 0
attr mutable ""
par Network.gnb907.x2$o[0].channel length 10m
attr unit m
par Network.channelControl typename "\"simu5g.world.radio.LteChannelControl\""
par Network.channelControl coreDebug false
par Network.channelControl pMax 20mW
attr unit mW
par Network.channelControl sat -110dBm
attr unit dBm
par Network.channelControl alpha 2
par Network.channelControl carrierFrequency 3.9e+10Hz
attr unit Hz
par Network.channelControl numChannels 8
par Network.channelControl propagationModel "\"RiceModel\""
attr enum FreeSpaceModel,TwoRayGroundModel,RiceModel,RayleighModel,NakagamiModel,LogNormalShadowingModel
par Network.routingRecorder typename "\"inet.networklayer.ipv4.RoutingTableRecorder\""
par Network.routingRecorder enabled true
par Network.configurator typename "\"inet.networklayer.configurator.ipv4.Ipv4NetworkConfigurator\""
par Network.configurator minLinkWeight 0.001
par Network.configurator configureIsolatedNetworksSeparatly false
par Network.configurator config "<config>...</config> at C:/Software/omnetpp-6.0.1/samples/simu5G/simulations/Custom/generate/\\./demo.xml:1"
par Network.configurator assignAddresses true
par Network.configurator assignUniqueAddresses true
par Network.configurator assignDisjunctSubnetAddresses true
par Network.configurator addStaticRoutes true
par Network.configurator addDefaultRoutes true
par Network.configurator addSubnetRoutes true
par Network.configurator addDirectRoutes true
par Network.configurator optimizeRoutes true
par Network.configurator dumpTopology false
par Network.configurator dumpLinks false
par Network.configurator dumpAddresses false
par Network.configurator dumpRoutes false
par Network.configurator dumpConfig "\"\""
par Network.binder typename "\"simu5g.common.binder.Binder\""
par Network.binder blerShift 0
par Network.binder maxDataRatePerRb 1.16Mbps
attr unit Mbps
par Network.binder printTrafficGeneratorConfig false
par Network.carrierAggregation.componentCarrier[0] typename "\"simu5g.common.carrierAggregation.ComponentCarrier\""
par Network.carrierAggregation.componentCarrier[0] carrierFrequency 2GHz
attr unit GHz
par Network.carrierAggregation.componentCarrier[0] numBands 6
par Network.carrierAggregation.componentCarrier[0] numerologyIndex 0
par Network.carrierAggregation.componentCarrier[0] useTdd false
par Network.carrierAggregation.componentCarrier[0] tddNumSymbolsDl 7
par Network.carrierAggregation.componentCarrier[0] tddNumSymbolsUl 7
par Network.carrierAggregation typename "\"simu5g.common.carrierAggregation.CarrierAggregation\""
par Network.carrierAggregation numComponentCarriers 1
par Network.server.pppg$i[0].channel typename "\"ned.IdealChannel\""
par Network.server.ppp[0].phys$o.channel typename "\"ned.IdealChannel\""
par Network.server.interfaceTable typename "\"inet.networklayer.common.InterfaceTable\""
par Network.server.interfaceTable displayAddresses false
par Network.server.cb typename "\"inet.common.MessageDispatcher\""
par Network.server.cb displayStringTextFormat "\"processed %p pk (%l)\""
par Network.server.cb forwardServiceRegistration true
par Network.server.cb forwardProtocolRegistration true
par Network.server.bl typename "\"inet.common.MessageDispatcher\""
par Network.server.bl displayStringTextFormat "\"processed %p pk (%l)\""
par Network.server.bl forwardServiceRegistration true
par Network.server.bl forwardProtocolRegistration true
par Network.server.li typename "\"inet.common.MessageDispatcher\""
par Network.server.li displayStringTextFormat "\"processed %p pk (%l)\""
par Network.server.li forwardServiceRegistration true
par Network.server.li forwardProtocolRegistration true
par Network.server.lo[0].upperLayerIn.channel typename "\"ned.IdealChannel\""
par Network.server.lo[0].lo.upperLayerOut.channel typename "\"ned.IdealChannel\""
par Network.server.lo[0].lo typename "\"inet.linklayer.loopback.Loopback\""
par Network.server.lo[0].lo interfaceTableModule "\"Network.server.interfaceTable\""
par Network.server.lo[0].lo mtu 4470B
attr unit B
par Network.server.lo[0] typename "\"inet.linklayer.loopback.LoopbackInterface\""
par Network.server.lo[0] displayStringTextFormat "\"%a (%i)\\n%m\""
par Network.server.lo[0] recordPcap false
par Network.server.lo[0] numPcapRecorders 0
par Network.server.lo[0] interfaceTableModule "\"Network.server.interfaceTable\""
par Network.server.ppp[0].phys$i.channel typename "\"ned.IdealChannel\""
par Network.server.ppp[0].ppp.phys$o.channel typename "\"ned.IdealChannel\""
par Network.server.ppp[0].ppp.upperLayerOut.channel typename "\"ned.IdealChannel\""
par Network.server.ppp[0].upperLayerIn.channel typename "\"ned.IdealChannel\""
par Network.server.ppp[0].queue typename "\"inet.queueing.queue.DropTailQueue\""
par Network.server.ppp[0].queue displayStringTextFormat "\"contains %p pk (%l) pushed %u\\npulled %o removed %r dropped %d\""
par Network.server.ppp[0].queue packetCapacity 10000
par Network.server.ppp[0].queue dataCapacity -1b
attr unit b
par Network.server.ppp[0].queue dropperClass "\"inet::queueing::PacketAtCollectionEndDropper\""
par Network.server.ppp[0].queue comparatorClass "\"\""
par Network.server.ppp[0].queue bufferModule "\"\""
par Network.server.ppp[0].ppp typename "\"inet.linklayer.ppp.Ppp\""
par Network.server.ppp[0].ppp interfaceTableModule "\"Network.server.interfaceTable\""
par Network.server.ppp[0].ppp displayStringTextFormat "\"rate: %b\\nsent: %s, rcvd: %r\\nqueue: %q, drop: %d\""
par Network.server.ppp[0].ppp sendRawBytes false
par Network.server.ppp[0].ppp mtu 4470B
attr unit B
par Network.server.ppp[0].ppp stopOperationExtraTime -1s
attr unit s
par Network.server.ppp[0].ppp stopOperationTimeout 2s
attr unit s
par Network.server.ppp[0] typename "\"inet.linklayer.ppp.PppInterface\""
par Network.server.ppp[0] displayStringTextFormat "\"%a (%i)\\n%m\""
par Network.server.ppp[0] recordPcap false
par Network.server.ppp[0] numPcapRecorders 0
par Network.server.ppp[0] interfaceTableModule "\"Network.server.interfaceTable\""
par Network.server.ipv4.transportIn.channel typename "\"ned.IdealChannel\""
par Network.server.ipv4.up.out[0].channel typename "\"ned.IdealChannel\""
par Network.server.ipv4.lp.out[2].channel typename "\"ned.IdealChannel\""
par Network.server.ipv4.ifIn.channel typename "\"ned.IdealChannel\""
par Network.server.ipv4.configurator typename "\"inet.networklayer.configurator.ipv4.Ipv4NodeConfigurator\""
par Network.server.ipv4.configurator interfaceTableModule "\"Network.server.interfaceTable\""
par Network.server.ipv4.configurator routingTableModule "\"Network.server.ipv4.routingTable\""
par Network.server.ipv4.configurator networkConfiguratorModule "\"configurator\""
par Network.server.ipv4.configurator configureRoutingTable true
par Network.server.ipv4.routingTable typename "\"inet.networklayer.ipv4.Ipv4RoutingTable\""
par Network.server.ipv4.routingTable interfaceTableModule "\"Network.server.interfaceTable\""
par Network.server.ipv4.routingTable routerId "\"auto\""
par Network.server.ipv4.routingTable netmaskRoutes "\"*\""
par Network.server.ipv4.routingTable forwarding false
par Network.server.ipv4.routingTable multicastForwarding false
par Network.server.ipv4.routingTable useAdminDist false
par Network.server.ipv4.routingTable routingFile "\"\""
par Network.server.ipv4.natTable typename "\"inet.networklayer.ipv4.Ipv4NatTable\""
par Network.server.ipv4.natTable networkProtocolModule "\"^.ip\""
par Network.server.ipv4.natTable config "<config/> at content:1"
par Network.server.ipv4.up typename "\"inet.common.MessageDispatcher\""
par Network.server.ipv4.up displayStringTextFormat "\"processed %p pk (%l)\""
par Network.server.ipv4.up forwardServiceRegistration true
par Network.server.ipv4.up forwardProtocolRegistration true
par Network.server.ipv4.igmp typename "\"inet.networklayer.ipv4.Igmpv2\""
par Network.server.ipv4.igmp interfaceTableModule "\"Network.server.interfaceTable\""
par Network.server.ipv4.igmp routingTableModule "\"Network.server.ipv4.routingTable\""
par Network.server.ipv4.igmp crcMode "\"declared\""
attr enum declared,computed
par Network.server.ipv4.igmp enabled true
par Network.server.ipv4.igmp robustnessVariable 2
par Network.server.ipv4.igmp queryInterval 125s
attr unit s
par Network.server.ipv4.igmp queryResponseInterval 10s
attr unit s
par Network.server.ipv4.igmp groupMembershipInterval 260s
attr unit s
par Network.server.ipv4.igmp otherQuerierPresentInterval 255s
attr unit s
par Network.server.ipv4.igmp startupQueryInterval 31.25s
attr unit s
par Network.server.ipv4.igmp startupQueryCount 2
par Network.server.ipv4.igmp lastMemberQueryInterval 1s
attr unit s
par Network.server.ipv4.igmp lastMemberQueryCount 2
par Network.server.ipv4.igmp unsolicitedReportInterval 10s
attr unit s
par Network.server.ipv4.icmp typename "\"inet.networklayer.ipv4.Icmp\""
par Network.server.ipv4.icmp interfaceTableModule "\"Network.server.interfaceTable\""
par Network.server.ipv4.icmp routingTableModule "\"Network.server.ipv4.routingTable\""
par Network.server.ipv4.icmp crcMode "\"declared\""
attr enum declared,computed
attr mutable ""
par Network.server.ipv4.icmp quoteLength 8B
attr mutable ""
attr unit B
par Network.server.ipv4.mp typename "\"inet.common.MessageDispatcher\""
par Network.server.ipv4.mp displayStringTextFormat "\"processed %p pk (%l)\""
par Network.server.ipv4.mp forwardServiceRegistration true
par Network.server.ipv4.mp forwardProtocolRegistration true
par Network.server.ipv4.ip typename "\"inet.networklayer.ipv4.Ipv4\""
par Network.server.ipv4.ip interfaceTableModule "\"Network.server.interfaceTable\""
par Network.server.ipv4.ip routingTableModule "\"Network.server.ipv4.routingTable\""
par Network.server.ipv4.ip arpModule "\"Network.server.ipv4.arp\""
par Network.server.ipv4.ip icmpModule "\"Network.server.ipv4.icmp\""
par Network.server.ipv4.ip crcMode "\"declared\""
attr enum declared,computed
par Network.server.ipv4.ip timeToLive 32
par Network.server.ipv4.ip multicastTimeToLive 32
par Network.server.ipv4.ip fragmentTimeout 60s
attr unit s
par Network.server.ipv4.ip limitedBroadcast false
par Network.server.ipv4.ip directBroadcastInterfaces "\"\""
par Network.server.ipv4.arp typename "\"inet.networklayer.arp.ipv4.Arp\""
par Network.server.ipv4.arp interfaceTableModule "\"Network.server.interfaceTable\""
par Network.server.ipv4.arp routingTableModule "\"Network.server.ipv4.routingTable\""
par Network.server.ipv4.arp retryTimeout 1s
attr unit s
par Network.server.ipv4.arp retryCount 3
par Network.server.ipv4.arp cacheTimeout 120s
attr unit s
par Network.server.ipv4.arp proxyArpInterfaces "\"\""
par Network.server.ipv4.lp typename "\"inet.common.MessageDispatcher\""
par Network.server.ipv4.lp displayStringTextFormat "\"processed %p pk (%l)\""
par Network.server.ipv4.lp forwardServiceRegistration true
par Network.server.ipv4.lp forwardProtocolRegistration true
par Network.server.ipv4 typename "\"inet.networklayer.ipv4.Ipv4NetworkLayer\""
par Network.server.ipv4 forwarding false
par Network.server.ipv4 multicastForwarding false
par Network.server.ipv4 interfaceTableModule "\"Network.server.interfaceTable\""
par Network.server.ipv4 displayStringTextFormat "\"%i\""
par Network.server.nl typename "\"inet.common.MessageDispatcher\""
par Network.server.nl displayStringTextFormat "\"processed %p pk (%l)\""
par Network.server.nl forwardServiceRegistration true
par Network.server.nl forwardProtocolRegistration true
par Network.server.udp typename "\"inet.transportlayer.udp.Udp\""
par Network.server.udp interfaceTableModule "\"Network.server.interfaceTable\""
par Network.server.udp icmpModule "\"^.ipv4.icmp\""
par Network.server.udp icmpv6Module "\"^.ipv6.icmpv6\""
par Network.server.udp crcMode "\"declared\""
attr enum disabled,declared,computed
par Network.server.udp defaultMulticastLoop true
par Network.server.tcp typename "\"inet.transportlayer.tcp.Tcp\""
par Network.server.tcp crcMode "\"declared\""
attr enum declared,computed
par Network.server.tcp advertisedWindow 7504
par Network.server.tcp delayedAcksEnabled false
par Network.server.tcp nagleEnabled true
par Network.server.tcp limitedTransmitEnabled false
par Network.server.tcp increasedIWEnabled false
par Network.server.tcp sackSupport false
par Network.server.tcp windowScalingSupport false
par Network.server.tcp windowScalingFactor -1
par Network.server.tcp timestampSupport false
par Network.server.tcp mss 536
par Network.server.tcp msl 120s
attr unit s
par Network.server.tcp tcpAlgorithmClass "\"TcpReno\""
attr enum TcpVegas,TcpWestwood,TcpNewReno,TcpReno,TcpTahoe,TcpNoCongestionControl
par Network.server.tcp useDataNotification false
par Network.server.tcp dupthresh 3
par Network.server.tcp initialSsthresh 4294967295
par Network.server.tcp stopOperationExtraTime 0s
attr unit s
par Network.server.tcp stopOperationTimeout 2s
attr unit s
par Network.server.tcp ecnWillingness false
par Network.server.tcp dctcpGamma 0.0625
par Network.server.tn typename "\"inet.common.MessageDispatcher\""
par Network.server.tn displayStringTextFormat "\"processed %p pk (%l)\""
par Network.server.tn forwardServiceRegistration true
par Network.server.tn forwardProtocolRegistration true
par Network.server.app[0] typename "\"simu5g.apps.voip.VoIPSender\""
par Network.server.app[0] localPort 3088
par Network.server.app[0] destPort 3000
par Network.server.app[0] destAddress "\"ue[0]\""
par Network.server.app[0] PacketSize 40
par Network.server.app[0] shape_talk 0.824
par Network.server.app[0] scale_talk 1.423
par Network.server.app[0] shape_sil 1.089
par Network.server.app[0] scale_sil 0.899
par Network.server.app[0] is_talk true
par Network.server.app[0] sampling_time 0.02s
attr unit s
par Network.server.app[0] startTime 0.0162304s
attr unit s
par Network.server.app[0] silences true
par Network.server.app[0] tos 10
par Network.server.at typename "\"inet.common.MessageDispatcher\""
par Network.server.at displayStringTextFormat "\"processed %p pk (%l)\""
par Network.server.at forwardServiceRegistration true
par Network.server.at forwardProtocolRegistration true
par Network.server typename "\"inet.node.inet.StandardHost\""
par Network.server hasStatus false
par Network.server osgModel "\"\""
par Network.server osgModelColor "\"\""
par Network.server canvasImage "\"\""
par Network.server canvasImageColor "\"\""
par Network.server recordPcap false
par Network.server numPcapRecorders 0
par Network.server numLoInterfaces 1
par Network.server numWlanInterfaces 0
par Network.server numEthInterfaces 0
par Network.server numPppInterfaces 0
par Network.server numTunInterfaces 0
par Network.server numVirtInterfaces 0
par Network.server fcsMode "\"declared\""
attr enum declared,computed
par Network.server hasIpv4 true
par Network.server hasIpv6 false
par Network.server hasGn false
par Network.server forwarding false
par Network.server multicastForwarding false
par Network.server hasUdp true
par Network.server hasTcp true
par Network.server hasSctp false
par Network.server numApps 1
par Network.router.pppg$i[0].channel typename "\"ned.IdealChannel\""
par Network.router.ppp[0].phys$o.channel typename "\"ned.IdealChannel\""
par Network.router.pppg$i[1].channel typename "\"ned.IdealChannel\""
par Network.router.ppp[1].phys$o.channel typename "\"ned.IdealChannel\""
par Network.router.interfaceTable typename "\"inet.networklayer.common.InterfaceTable\""
par Network.router.interfaceTable displayAddresses false
par Network.router.cb typename "\"inet.common.MessageDispatcher\""
par Network.router.cb displayStringTextFormat "\"processed %p pk (%l)\""
par Network.router.cb forwardServiceRegistration true
par Network.router.cb forwardProtocolRegistration true
par Network.router.bl typename "\"inet.common.MessageDispatcher\""
par Network.router.bl displayStringTextFormat "\"processed %p pk (%l)\""
par Network.router.bl forwardServiceRegistration true
par Network.router.bl forwardProtocolRegistration true
par Network.router.li typename "\"inet.common.MessageDispatcher\""
par Network.router.li displayStringTextFormat "\"processed %p pk (%l)\""
par Network.router.li forwardServiceRegistration true
par Network.router.li forwardProtocolRegistration true
par Network.router.lo[0].upperLayerIn.channel typename "\"ned.IdealChannel\""
par Network.router.lo[0].lo.upperLayerOut.channel typename "\"ned.IdealChannel\""
par Network.router.lo[0].lo typename "\"inet.linklayer.loopback.Loopback\""
par Network.router.lo[0].lo interfaceTableModule "\"Network.router.interfaceTable\""
par Network.router.lo[0].lo mtu 4470B
attr unit B
par Network.router.lo[0] typename "\"inet.linklayer.loopback.LoopbackInterface\""
par Network.router.lo[0] displayStringTextFormat "\"%a (%i)\\n%m\""
par Network.router.lo[0] recordPcap false
par Network.router.lo[0] numPcapRecorders 0
par Network.router.lo[0] interfaceTableModule "\"Network.router.interfaceTable\""
par Network.router.ppp[0].phys$i.channel typename "\"ned.IdealChannel\""
par Network.router.ppp[0].ppp.phys$o.channel typename "\"ned.IdealChannel\""
par Network.router.ppp[0].ppp.upperLayerOut.channel typename "\"ned.IdealChannel\""
par Network.router.ppp[0].upperLayerIn.channel typename "\"ned.IdealChannel\""
par Network.router.ppp[0].queue typename "\"inet.queueing.queue.DropTailQueue\""
par Network.router.ppp[0].queue displayStringTextFormat "\"contains %p pk (%l) pushed %u\\npulled %o removed %r dropped %d\""
par Network.router.ppp[0].queue packetCapacity 10000
par Network.router.ppp[0].queue dataCapacity -1b
attr unit b
par Network.router.ppp[0].queue dropperClass "\"inet::queueing::PacketAtCollectionEndDropper\""
par Network.router.ppp[0].queue comparatorClass "\"\""
par Network.router.ppp[0].queue bufferModule "\"\""
par Network.router.ppp[0].ppp typename "\"inet.linklayer.ppp.Ppp\""
par Network.router.ppp[0].ppp interfaceTableModule "\"Network.router.interfaceTable\""
par Network.router.ppp[0].ppp displayStringTextFormat "\"rate: %b\\nsent: %s, rcvd: %r\\nqueue: %q, drop: %d\""
par Network.router.ppp[0].ppp sendRawBytes false
par Network.router.ppp[0].ppp mtu 4470B
attr unit B
par Network.router.ppp[0].ppp stopOperationExtraTime -1s
attr unit s
par Network.router.ppp[0].ppp stopOperationTimeout 2s
attr unit s
par Network.router.ppp[0] typename "\"inet.linklayer.ppp.PppInterface\""
par Network.router.ppp[0] displayStringTextFormat "\"%a (%i)\\n%m\""
par Network.router.ppp[0] recordPcap false
par Network.router.ppp[0] numPcapRecorders 0
par Network.router.ppp[0] interfaceTableModule "\"Network.router.interfaceTable\""
par Network.router.ppp[1].phys$i.channel typename "\"ned.IdealChannel\""
par Network.router.ppp[1].ppp.phys$o.channel typename "\"ned.IdealChannel\""
par Network.router.ppp[1].ppp.upperLayerOut.channel typename "\"ned.IdealChannel\""
par Network.router.ppp[1].upperLayerIn.channel typename "\"ned.IdealChannel\""
par Network.router.ppp[1].queue typename "\"inet.queueing.queue.DropTailQueue\""
par Network.router.ppp[1].queue displayStringTextFormat "\"contains %p pk (%l) pushed %u\\npulled %o removed %r dropped %d\""
par Network.router.ppp[1].queue packetCapacity 10000
par Network.router.ppp[1].queue dataCapacity -1b
attr unit b
par Network.router.ppp[1].queue dropperClass "\"inet::queueing::PacketAtCollectionEndDropper\""
par Network.router.ppp[1].queue comparatorClass "\"\""
par Network.router.ppp[1].queue bufferModule "\"\""
par Network.router.ppp[1].ppp typename "\"inet.linklayer.ppp.Ppp\""
par Network.router.ppp[1].ppp interfaceTableModule "\"Network.router.interfaceTable\""
par Network.router.ppp[1].ppp displayStringTextFormat "\"rate: %b\\nsent: %s, rcvd: %r\\nqueue: %q, drop: %d\""
par Network.router.ppp[1].ppp sendRawBytes false
par Network.router.ppp[1].ppp mtu 4470B
attr unit B
par Network.router.ppp[1].ppp stopOperationExtraTime -1s
attr unit s
par Network.router.ppp[1].ppp stopOperationTimeout 2s
attr unit s
par Network.router.ppp[1] typename "\"inet.linklayer.ppp.PppInterface\""
par Network.router.ppp[1] displayStringTextFormat "\"%a (%i)\\n%m\""
par Network.router.ppp[1] recordPcap false
par Network.router.ppp[1] numPcapRecorders 0
par Network.router.ppp[1] interfaceTableModule "\"Network.router.interfaceTable\""
par Network.router.ipv4.transportIn.channel typename "\"ned.IdealChannel\""
par Network.router.ipv4.up.out[0].channel typename "\"ned.IdealChannel\""
par Network.router.ipv4.lp.out[2].channel typename "\"ned.IdealChannel\""
par Network.router.ipv4.ifIn.channel typename "\"ned.IdealChannel\""
par Network.router.ipv4.configurator typename "\"inet.networklayer.configurator.ipv4.Ipv4NodeConfigurator\""
par Network.router.ipv4.configurator interfaceTableModule "\"Network.router.interfaceTable\""
par Network.router.ipv4.configurator routingTableModule "\"Network.router.ipv4.routingTable\""
par Network.router.ipv4.configurator networkConfiguratorModule "\"configurator\""
par Network.router.ipv4.configurator configureRoutingTable true
par Network.router.ipv4.routingTable typename "\"inet.networklayer.ipv4.Ipv4RoutingTable\""
par Network.router.ipv4.routingTable interfaceTableModule "\"Network.router.interfaceTable\""
par Network.router.ipv4.routingTable routerId "\"auto\""
par Network.router.ipv4.routingTable netmaskRoutes "\"*\""
par Network.router.ipv4.routingTable forwarding true
par Network.router.ipv4.routingTable multicastForwarding false
par Network.router.ipv4.routingTable useAdminDist false
par Network.router.ipv4.routingTable routingFile "\"\""
par Network.router.ipv4.natTable typename "\"inet.networklayer.ipv4.Ipv4NatTable\""
par Network.router.ipv4.natTable networkProtocolModule "\"^.ip\""
par Network.router.ipv4.natTable config "<config/> at content:1"
par Network.router.ipv4.up typename "\"inet.common.MessageDispatcher\""
par Network.router.ipv4.up displayStringTextFormat "\"processed %p pk (%l)\""
par Network.router.ipv4.up forwardServiceRegistration true
par Network.router.ipv4.up forwardProtocolRegistration true
par Network.router.ipv4.igmp typename "\"inet.networklayer.ipv4.Igmpv2\""
par Network.router.ipv4.igmp interfaceTableModule "\"Network.router.interfaceTable\""
par Network.router.ipv4.igmp routingTableModule "\"Network.router.ipv4.routingTable\""
par Network.router.ipv4.igmp crcMode "\"declared\""
attr enum declared,computed
par Network.router.ipv4.igmp enabled true
par Network.router.ipv4.igmp robustnessVariable 2
par Network.router.ipv4.igmp queryInterval 125s
attr unit s
par Network.router.ipv4.igmp queryResponseInterval 10s
attr unit s
par Network.router.ipv4.igmp groupMembershipInterval 260s
attr unit s
par Network.router.ipv4.igmp otherQuerierPresentInterval 255s
attr unit s
par Network.router.ipv4.igmp startupQueryInterval 31.25s
attr unit s
par Network.router.ipv4.igmp startupQueryCount 2
par Network.router.ipv4.igmp lastMemberQueryInterval 1s
attr unit s
par Network.router.ipv4.igmp lastMemberQueryCount 2
par Network.router.ipv4.igmp unsolicitedReportInterval 10s
attr unit s
par Network.router.ipv4.icmp typename "\"inet.networklayer.ipv4.Icmp\""
par Network.router.ipv4.icmp interfaceTableModule "\"Network.router.interfaceTable\""
par Network.router.ipv4.icmp routingTableModule "\"Network.router.ipv4.routingTable\""
par Network.router.ipv4.icmp crcMode "\"declared\""
attr enum declared,computed
attr mutable ""
par Network.router.ipv4.icmp quoteLength 8B
attr mutable ""
attr unit B
par Network.router.ipv4.mp typename "\"inet.common.MessageDispatcher\""
par Network.router.ipv4.mp displayStringTextFormat "\"processed %p pk (%l)\""
par Network.router.ipv4.mp forwardServiceRegistration true
par Network.router.ipv4.mp forwardProtocolRegistration true
par Network.router.ipv4.ip typename "\"inet.networklayer.ipv4.Ipv4\""
par Network.router.ipv4.ip interfaceTableModule "\"Network.router.interfaceTable\""
par Network.router.ipv4.ip routingTableModule "\"Network.router.ipv4.routingTable\""
par Network.router.ipv4.ip arpModule "\"Network.router.ipv4.arp\""
par Network.router.ipv4.ip icmpModule "\"Network.router.ipv4.icmp\""
par Network.router.ipv4.ip crcMode "\"declared\""
attr enum declared,computed
par Network.router.ipv4.ip timeToLive 32
par Network.router.ipv4.ip multicastTimeToLive 32
par Network.router.ipv4.ip fragmentTimeout 60s
attr unit s
par Network.router.ipv4.ip limitedBroadcast false
par Network.router.ipv4.ip directBroadcastInterfaces "\"\""
par Network.router.ipv4.arp typename "\"inet.networklayer.arp.ipv4.Arp\""
par Network.router.ipv4.arp interfaceTableModule "\"Network.router.interfaceTable\""
par Network.router.ipv4.arp routingTableModule "\"Network.router.ipv4.routingTable\""
par Network.router.ipv4.arp retryTimeout 1s
attr unit s
par Network.router.ipv4.arp retryCount 3
par Network.router.ipv4.arp cacheTimeout 120s
attr unit s
par Network.router.ipv4.arp proxyArpInterfaces "\"*\""
par Network.router.ipv4.lp typename "\"inet.common.MessageDispatcher\""
par Network.router.ipv4.lp displayStringTextFormat "\"processed %p pk (%l)\""
par Network.router.ipv4.lp forwardServiceRegistration true
par Network.router.ipv4.lp forwardProtocolRegistration true
par Network.router.ipv4 typename "\"inet.networklayer.ipv4.Ipv4NetworkLayer\""
par Network.router.ipv4 forwarding true
par Network.router.ipv4 multicastForwarding false
par Network.router.ipv4 interfaceTableModule "\"Network.router.interfaceTable\""
par Network.router.ipv4 displayStringTextFormat "\"%i\""
par Network.router.nl typename "\"inet.common.MessageDispatcher\""
par Network.router.nl displayStringTextFormat "\"processed %p pk (%l)\""
par Network.router.nl forwardServiceRegistration true
par Network.router.nl forwardProtocolRegistration true
par Network.router.tn typename "\"inet.common.MessageDispatcher\""
par Network.router.tn displayStringTextFormat "\"processed %p pk (%l)\""
par Network.router.tn forwardServiceRegistration true
par Network.router.tn forwardProtocolRegistration true
par Network.router.at typename "\"inet.common.MessageDispatcher\""
par Network.router.at displayStringTextFormat "\"processed %p pk (%l)\""
par Network.router.at forwardServiceRegistration true
par Network.router.at forwardProtocolRegistration true
par Network.router typename "\"inet.node.inet.Router\""
par Network.router hasStatus false
par Network.router osgModel "\"\""
par Network.router osgModelColor "\"\""
par Network.router canvasImage "\"\""
par Network.router canvasImageColor "\"\""
par Network.router recordPcap false
par Network.router numPcapRecorders 0
par Network.router numLoInterfaces 1
par Network.router numWlanInterfaces 0
par Network.router numEthInterfaces 0
par Network.router numPppInterfaces 0
par Network.router numTunInterfaces 0
par Network.router numVirtInterfaces 0
par Network.router fcsMode "\"declared\""
attr enum declared,computed
par Network.router hasIpv4 true
par Network.router hasIpv6 false
par Network.router hasGn false
par Network.router forwarding true
par Network.router multicastForwarding false
par Network.router hasUdp false
par Network.router hasTcp false
par Network.router hasSctp false
par Network.router numApps 0
par Network.router hasEigrp false
par Network.router hasOspf false
par Network.router hasRip false
par Network.router hasBgp false
par Network.router hasPim false
par Network.router hasDhcp false
par Network.pgw.pppg$i[0].channel typename "\"ned.IdealChannel\""
par Network.pgw.ppp[0].phys$o.channel typename "\"ned.IdealChannel\""
par Network.pgw.interfaceTable typename "\"inet.networklayer.common.InterfaceTable\""
par Network.pgw.interfaceTable displayAddresses false
par Network.pgw.cb typename "\"inet.common.MessageDispatcher\""
par Network.pgw.cb displayStringTextFormat "\"processed %p pk (%l)\""
par Network.pgw.cb forwardServiceRegistration true
par Network.pgw.cb forwardProtocolRegistration true
par Network.pgw.bl typename "\"inet.common.MessageDispatcher\""
par Network.pgw.bl displayStringTextFormat "\"processed %p pk (%l)\""
par Network.pgw.bl forwardServiceRegistration true
par Network.pgw.bl forwardProtocolRegistration true
par Network.pgw.li typename "\"inet.common.MessageDispatcher\""
par Network.pgw.li displayStringTextFormat "\"processed %p pk (%l)\""
par Network.pgw.li forwardServiceRegistration true
par Network.pgw.li forwardProtocolRegistration true
par Network.pgw.lo[0].upperLayerIn.channel typename "\"ned.IdealChannel\""
par Network.pgw.lo[0].lo.upperLayerOut.channel typename "\"ned.IdealChannel\""
par Network.pgw.lo[0].lo typename "\"inet.linklayer.loopback.Loopback\""
par Network.pgw.lo[0].lo interfaceTableModule "\"Network.pgw.interfaceTable\""
par Network.pgw.lo[0].lo mtu 4470B
attr unit B
par Network.pgw.lo[0] typename "\"inet.linklayer.loopback.LoopbackInterface\""
par Network.pgw.lo[0] displayStringTextFormat "\"%a (%i)\\n%m\""
par Network.pgw.lo[0] recordPcap false
par Network.pgw.lo[0] numPcapRecorders 0
par Network.pgw.lo[0] interfaceTableModule "\"Network.pgw.interfaceTable\""
par Network.pgw.ppp[0].phys$i.channel typename "\"ned.IdealChannel\""
par Network.pgw.ppp[0].ppp.phys$o.channel typename "\"ned.IdealChannel\""
par Network.pgw.ppp[0].ppp.upperLayerOut.channel typename "\"ned.IdealChannel\""
par Network.pgw.ppp[0].upperLayerIn.channel typename "\"ned.IdealChannel\""
par Network.pgw.ppp[0].queue typename "\"inet.queueing.queue.DropTailQueue\""
par Network.pgw.ppp[0].queue displayStringTextFormat "\"contains %p pk (%l) pushed %u\\npulled %o removed %r dropped %d\""
par Network.pgw.ppp[0].queue packetCapacity 10000
par Network.pgw.ppp[0].queue dataCapacity -1b
attr unit b
par Network.pgw.ppp[0].queue dropperClass "\"inet::queueing::PacketAtCollectionEndDropper\""
par Network.pgw.ppp[0].queue comparatorClass "\"\""
par Network.pgw.ppp[0].queue bufferModule "\"\""
par Network.pgw.ppp[0].ppp typename "\"inet.linklayer.ppp.Ppp\""
par Network.pgw.ppp[0].ppp interfaceTableModule "\"Network.pgw.interfaceTable\""
par Network.pgw.ppp[0].ppp displayStringTextFormat "\"rate: %b\\nsent: %s, rcvd: %r\\nqueue: %q, drop: %d\""
par Network.pgw.ppp[0].ppp sendRawBytes false
par Network.pgw.ppp[0].ppp mtu 4470B
attr unit B
par Network.pgw.ppp[0].ppp stopOperationExtraTime -1s
attr unit s
par Network.pgw.ppp[0].ppp stopOperationTimeout 2s
attr unit s
par Network.pgw.ppp[0] typename "\"inet.linklayer.ppp.PppInterface\""
par Network.pgw.ppp[0] displayStringTextFormat "\"%a (%i)\\n%m\""
par Network.pgw.ppp[0] recordPcap false
par Network.pgw.ppp[0] numPcapRecorders 0
par Network.pgw.ppp[0] interfaceTableModule "\"Network.pgw.interfaceTable\""
par Network.pgw.ipv4.transportIn.channel typename "\"ned.IdealChannel\""
par Network.pgw.ipv4.up.out[0].channel typename "\"ned.IdealChannel\""
par Network.pgw.ipv4.lp.out[2].channel typename "\"ned.IdealChannel\""
par Network.pgw.ipv4.ifIn.channel typename "\"ned.IdealChannel\""
par Network.pgw.ipv4.configurator typename "\"inet.networklayer.configurator.ipv4.Ipv4NodeConfigurator\""
par Network.pgw.ipv4.configurator interfaceTableModule "\"Network.pgw.interfaceTable\""
par Network.pgw.ipv4.configurator routingTableModule "\"Network.pgw.ipv4.routingTable\""
par Network.pgw.ipv4.configurator networkConfiguratorModule "\"configurator\""
par Network.pgw.ipv4.configurator configureRoutingTable true
par Network.pgw.ipv4.routingTable typename "\"inet.networklayer.ipv4.Ipv4RoutingTable\""
par Network.pgw.ipv4.routingTable interfaceTableModule "\"Network.pgw.interfaceTable\""
par Network.pgw.ipv4.routingTable routerId "\"auto\""
par Network.pgw.ipv4.routingTable netmaskRoutes "\"*\""
par Network.pgw.ipv4.routingTable forwarding true
par Network.pgw.ipv4.routingTable multicastForwarding false
par Network.pgw.ipv4.routingTable useAdminDist false
par Network.pgw.ipv4.routingTable routingFile "\"\""
par Network.pgw.ipv4.natTable typename "\"inet.networklayer.ipv4.Ipv4NatTable\""
par Network.pgw.ipv4.natTable networkProtocolModule "\"^.ip\""
par Network.pgw.ipv4.natTable config "<config/> at content:1"
par Network.pgw.ipv4.up typename "\"inet.common.MessageDispatcher\""
par Network.pgw.ipv4.up displayStringTextFormat "\"processed %p pk (%l)\""
par Network.pgw.ipv4.up forwardServiceRegistration true
par Network.pgw.ipv4.up forwardProtocolRegistration true
par Network.pgw.ipv4.igmp typename "\"inet.networklayer.ipv4.Igmpv2\""
par Network.pgw.ipv4.igmp interfaceTableModule "\"Network.pgw.interfaceTable\""
par Network.pgw.ipv4.igmp routingTableModule "\"Network.pgw.ipv4.routingTable\""
par Network.pgw.ipv4.igmp crcMode "\"declared\""
attr enum declared,computed
par Network.pgw.ipv4.igmp enabled true
par Network.pgw.ipv4.igmp robustnessVariable 2
par Network.pgw.ipv4.igmp queryInterval 125s
attr unit s
par Network.pgw.ipv4.igmp queryResponseInterval 10s
attr unit s
par Network.pgw.ipv4.igmp groupMembershipInterval 260s
attr unit s
par Network.pgw.ipv4.igmp otherQuerierPresentInterval 255s
attr unit s
par Network.pgw.ipv4.igmp startupQueryInterval 31.25s
attr unit s
par Network.pgw.ipv4.igmp startupQueryCount 2
par Network.pgw.ipv4.igmp lastMemberQueryInterval 1s
attr unit s
par Network.pgw.ipv4.igmp lastMemberQueryCount 2
par Network.pgw.ipv4.igmp unsolicitedReportInterval 10s
attr unit s
par Network.pgw.ipv4.icmp typename "\"inet.networklayer.ipv4.Icmp\""
par Network.pgw.ipv4.icmp interfaceTableModule "\"Network.pgw.interfaceTable\""
par Network.pgw.ipv4.icmp routingTableModule "\"Network.pgw.ipv4.routingTable\""
par Network.pgw.ipv4.icmp crcMode "\"declared\""
attr enum declared,computed
attr mutable ""
par Network.pgw.ipv4.icmp quoteLength 8B
attr mutable ""
attr unit B
par Network.pgw.ipv4.mp typename "\"inet.common.MessageDispatcher\""
par Network.pgw.ipv4.mp displayStringTextFormat "\"processed %p pk (%l)\""
par Network.pgw.ipv4.mp forwardServiceRegistration true
par Network.pgw.ipv4.mp forwardProtocolRegistration true
par Network.pgw.ipv4.ip typename "\"inet.networklayer.ipv4.Ipv4\""
par Network.pgw.ipv4.ip interfaceTableModule "\"Network.pgw.interfaceTable\""
par Network.pgw.ipv4.ip routingTableModule "\"Network.pgw.ipv4.routingTable\""
par Network.pgw.ipv4.ip arpModule "\"Network.pgw.ipv4.arp\""
par Network.pgw.ipv4.ip icmpModule "\"Network.pgw.ipv4.icmp\""
par Network.pgw.ipv4.ip crcMode "\"declared\""
attr enum declared,computed
par Network.pgw.ipv4.ip timeToLive 32
par Network.pgw.ipv4.ip multicastTimeToLive 32
par Network.pgw.ipv4.ip fragmentTimeout 60s
attr unit s
par Network.pgw.ipv4.ip limitedBroadcast false
par Network.pgw.ipv4.ip directBroadcastInterfaces "\"\""
par Network.pgw.ipv4.arp typename "\"inet.networklayer.arp.ipv4.Arp\""
par Network.pgw.ipv4.arp interfaceTableModule "\"Network.pgw.interfaceTable\""
par Network.pgw.ipv4.arp routingTableModule "\"Network.pgw.ipv4.routingTable\""
par Network.pgw.ipv4.arp retryTimeout 1s
attr unit s
par Network.pgw.ipv4.arp retryCount 3
par Network.pgw.ipv4.arp cacheTimeout 120s
attr unit s
par Network.pgw.ipv4.arp proxyArpInterfaces "\"*\""
par Network.pgw.ipv4.lp typename "\"inet.common.MessageDispatcher\""
par Network.pgw.ipv4.lp displayStringTextFormat "\"processed %p pk (%l)\""
par Network.pgw.ipv4.lp forwardServiceRegistration true
par Network.pgw.ipv4.lp forwardProtocolRegistration true
par Network.pgw.ipv4 typename "\"inet.networklayer.ipv4.Ipv4NetworkLayer\""
par Network.pgw.ipv4 forwarding true
par Network.pgw.ipv4 multicastForwarding false
par Network.pgw.ipv4 interfaceTableModule "\"Network.pgw.interfaceTable\""
par Network.pgw.ipv4 displayStringTextFormat "\"%i\""
par Network.pgw.nl typename "\"inet.common.MessageDispatcher\""
par Network.pgw.nl displayStringTextFormat "\"processed %p pk (%l)\""
par Network.pgw.nl forwardServiceRegistration true
par Network.pgw.nl forwardProtocolRegistration true
par Network.pgw.pppIf.phys$i.channel typename "\"ned.IdealChannel\""
par Network.pgw.pppIf.ppp.phys$o.channel typename "\"ned.IdealChannel\""
par Network.pgw.pppIf.ppp.upperLayerOut.channel typename "\"ned.IdealChannel\""
par Network.pgw.pppIf.upperLayerIn.channel typename "\"ned.IdealChannel\""
par Network.pgw.pppIf.queue typename "\"inet.queueing.queue.DropTailQueue\""
par Network.pgw.pppIf.queue displayStringTextFormat "\"contains %p pk (%l) pushed %u\\npulled %o removed %r dropped %d\""
par Network.pgw.pppIf.queue packetCapacity 10000
par Network.pgw.pppIf.queue dataCapacity -1b
attr unit b
par Network.pgw.pppIf.queue dropperClass "\"inet::queueing::PacketAtCollectionEndDropper\""
par Network.pgw.pppIf.queue comparatorClass "\"\""
par Network.pgw.pppIf.queue bufferModule "\"\""
par Network.pgw.pppIf.ppp typename "\"inet.linklayer.ppp.Ppp\""
par Network.pgw.pppIf.ppp interfaceTableModule "\"Network.pgw.interfaceTable\""
par Network.pgw.pppIf.ppp displayStringTextFormat "\"rate: %b\\nsent: %s, rcvd: %r\\nqueue: %q, drop: %d\""
par Network.pgw.pppIf.ppp sendRawBytes false
par Network.pgw.pppIf.ppp mtu 4470B
attr unit B
par Network.pgw.pppIf.ppp stopOperationExtraTime -1s
attr unit s
par Network.pgw.pppIf.ppp stopOperationTimeout 2s
attr unit s
par Network.pgw.pppIf typename "\"inet.linklayer.ppp.PppInterface\""
par Network.pgw.pppIf displayStringTextFormat "\"%a (%i)\\n%m\""
par Network.pgw.pppIf recordPcap false
par Network.pgw.pppIf numPcapRecorders 0
par Network.pgw.pppIf interfaceTableModule "\"Network.pgw.interfaceTable\""
par Network.pgw.udp typename "\"inet.transportlayer.udp.Udp\""
par Network.pgw.udp interfaceTableModule "\"Network.pgw.interfaceTable\""
par Network.pgw.udp icmpModule "\"^.ipv4.icmp\""
par Network.pgw.udp icmpv6Module "\"^.ipv6.icmpv6\""
par Network.pgw.udp crcMode "\"declared\""
attr enum disabled,declared,computed
par Network.pgw.udp defaultMulticastLoop true
par Network.pgw.trafficFlowFilter typename "\"simu5g.corenetwork.trafficFlowFilter.TrafficFlowFilter\""
par Network.pgw.trafficFlowFilter ownerType "\"PGW\""
par Network.pgw.trafficFlowFilter fastForwarding true
par Network.pgw.gtp_user typename "\"simu5g.corenetwork.gtp.GtpUser\""
par Network.pgw.gtp_user interfaceTableModule "\"Network.pgw.interfaceTable\""
par Network.pgw.gtp_user ipOutInterface "\"\""
par Network.pgw.gtp_user localPort 31
par Network.pgw.gtp_user tunnelPeerPort 31
par Network.pgw.gtp_user filter true
par Network.pgw.tn typename "\"inet.common.MessageDispatcher\""
par Network.pgw.tn displayStringTextFormat "\"processed %p pk (%l)\""
par Network.pgw.tn forwardServiceRegistration true
par Network.pgw.tn forwardProtocolRegistration true
par Network.pgw.at typename "\"inet.common.MessageDispatcher\""
par Network.pgw.at displayStringTextFormat "\"processed %p pk (%l)\""
par Network.pgw.at forwardServiceRegistration true
par Network.pgw.at forwardProtocolRegistration true
par Network.pgw typename "\"simu5g.nodes.PgwStandard\""
par Network.pgw hasStatus false
par Network.pgw osgModel "\"\""
par Network.pgw osgModelColor "\"\""
par Network.pgw canvasImage "\"\""
par Network.pgw canvasImageColor "\"\""
par Network.pgw recordPcap false
par Network.pgw numPcapRecorders 0
par Network.pgw numLoInterfaces 1
par Network.pgw numWlanInterfaces 0
par Network.pgw numEthInterfaces 0
par Network.pgw numPppInterfaces 0
par Network.pgw numTunInterfaces 0
par Network.pgw numVirtInterfaces 0
par Network.pgw fcsMode "\"declared\""
attr enum declared,computed
par Network.pgw hasIpv4 true
par Network.pgw hasIpv6 false
par Network.pgw hasGn false
par Network.pgw forwarding true
par Network.pgw multicastForwarding false
par Network.pgw nodeType "\"PGW\""
par Network.masterEnb.interfaceTable typename "\"inet.networklayer.common.InterfaceTable\""
par Network.masterEnb.interfaceTable displayAddresses false
par Network.masterEnb.mobility typename "\"inet.mobility.static.StationaryMobility\""
par Network.masterEnb.mobility subjectModule "\"^\""
par Network.masterEnb.mobility coordinateSystemModule "\"\""
par Network.masterEnb.mobility displayStringTextFormat "\"p: %p\\nv: %v\""
attr mutable ""
par Network.masterEnb.mobility updateDisplayString true
par Network.masterEnb.mobility constraintAreaMinX "-inf m"
attr unit m
par Network.masterEnb.mobility constraintAreaMinY "-inf m"
attr unit m
par Network.masterEnb.mobility constraintAreaMinZ "-inf m"
attr unit m
par Network.masterEnb.mobility constraintAreaMaxX "inf m"
attr unit m
par Network.masterEnb.mobility constraintAreaMaxY "inf m"
attr unit m
par Network.masterEnb.mobility constraintAreaMaxZ "inf m"
attr unit m
par Network.masterEnb.mobility initialX "nan m"
attr unit m
par Network.masterEnb.mobility initialY "nan m"
attr unit m
par Network.masterEnb.mobility initialZ 0m
attr unit m
par Network.masterEnb.mobility initialLatitude "nan deg"
attr unit deg
par Network.masterEnb.mobility initialLongitude "nan deg"
attr unit deg
par Network.masterEnb.mobility initialAltitude 0m
attr unit m
par Network.masterEnb.mobility initialHeading 0deg
attr unit deg
par Network.masterEnb.mobility initialElevation 0deg
attr unit deg
par Network.masterEnb.mobility initialBank 0deg
attr unit deg
par Network.masterEnb.mobility initFromDisplayString true
par Network.masterEnb.mobility updateFromDisplayString true
par Network.masterEnb.cellInfo typename "\"simu5g.common.cellInfo.CellInfo\""
par Network.masterEnb.cellInfo constraintAreaMinX "-inf m"
attr unit m
par Network.masterEnb.cellInfo constraintAreaMinY "-inf m"
attr unit m
par Network.masterEnb.cellInfo constraintAreaMaxX "inf m"
attr unit m
par Network.masterEnb.cellInfo constraintAreaMaxY "inf m"
attr unit m
par Network.masterEnb.cellInfo speed 0mps
attr unit mps
par Network.masterEnb.cellInfo positionUpdateInterval 0.001s
attr unit s
par Network.masterEnb.cellInfo broadcastMessageInterval 1s
attr unit s
par Network.masterEnb.cellInfo microCell false
par Network.masterEnb.cellInfo numRus 0
par Network.masterEnb.cellInfo ruRange 0
par Network.masterEnb.cellInfo ruStartingAngle 0deg
attr unit deg
par Network.masterEnb.cellInfo ruTxPower "\"0;\""
par Network.masterEnb.cellInfo antennaCws "\"1;\""
par Network.masterEnb.cellInfo rbyDl 12
par Network.masterEnb.cellInfo rbyUl 12
par Network.masterEnb.cellInfo rbxDl 7
par Network.masterEnb.cellInfo rbxUl 7
par Network.masterEnb.cellInfo rbPilotDl 3
par Network.masterEnb.cellInfo rbPilotUl 0
par Network.masterEnb.cellInfo signalDl 1
par Network.masterEnb.cellInfo signalUl 1
par Network.masterEnb.cellInfo numPreferredBands 1
par Network.masterEnb.cellularNic.ip2nic.upperLayerOut.channel typename "\"ned.DelayChannel\""
par Network.masterEnb.cellularNic.ip2nic.upperLayerOut.channel disabled false
attr mutable ""
par Network.masterEnb.cellularNic.ip2nic.upperLayerOut.channel delay 0s
attr mutable ""
attr unit s
par Network.masterEnb.cellularNic.upperLayerIn.channel typename "\"ned.DelayChannel\""
par Network.masterEnb.cellularNic.upperLayerIn.channel disabled false
attr mutable ""
par Network.masterEnb.cellularNic.upperLayerIn.channel delay 0s
attr mutable ""
attr unit s
par Network.masterEnb.cellularNic.ip2nic typename "\"simu5g.stack.ip2nic.IP2Nic\""
par Network.masterEnb.cellularNic.ip2nic nodeType "\"ENODEB\""
par Network.masterEnb.cellularNic.ip2nic interfaceTableModule "\"Network.masterEnb.interfaceTable\""
par Network.masterEnb.cellularNic.ip2nic interfaceName "\"cellular\""
par Network.masterEnb.cellularNic.ip2nic routingTableModule "\"^.ipv4.routingTable\""
par "Network.masterEnb.cellularNic.pdcpRrc.NRTxPdcpEntity Cid: 134283265" typename "\"simu5g.stack.pdcp_rrc.NRTxPdcpEntity\""
par Network.masterEnb.cellularNic.pdcpRrc typename "\"simu5g.stack.pdcp_rrc.NRPdcpRrcEnb\""
par Network.masterEnb.cellularNic.pdcpRrc headerCompressedSize -1B
attr unit B
par Network.masterEnb.cellularNic.pdcpRrc conversationalRlc 1
attr enum TM,UM,AM,UNKNOWN_RLC_TYPE
par Network.masterEnb.cellularNic.pdcpRrc streamingRlc 1
attr enum TM,UM,AM,UNKNOWN_RLC_TYPE
par Network.masterEnb.cellularNic.pdcpRrc interactiveRlc 1
attr enum TM,UM,AM,UNKNOWN_RLC_TYPE
par Network.masterEnb.cellularNic.pdcpRrc backgroundRlc 1
attr enum TM,UM,AM,UNKNOWN_RLC_TYPE
par Network.masterEnb.cellularNic.rlc.tm typename "\"simu5g.stack.rlc.LteRlcTm\""
par Network.masterEnb.cellularNic.rlc.tm queueSize 2097152B
attr unit B
par Network.masterEnb.cellularNic.rlc.um typename "\"simu5g.stack.rlc.LteRlcUmD2D\""
par Network.masterEnb.cellularNic.rlc.um queueSize 2097152B
attr unit B
par Network.masterEnb.cellularNic.rlc.um mapAllLcidsToSingleBearer false
par Network.masterEnb.cellularNic.rlc.am typename "\"simu5g.stack.rlc.LteRlcAm\""
par Network.masterEnb.cellularNic.rlc.mux typename "\"simu5g.stack.rlc.LteRlcMux\""
par Network.masterEnb.cellularNic.rlc typename "\"simu5g.stack.rlc.LteRlc\""
par Network.masterEnb.cellularNic.rlc LteRlcUmType "\"LteRlcUm\""
par Network.masterEnb.cellularNic.rlc d2dCapable true
par Network.masterEnb.cellularNic.rlc umType "\"LteRlcUmD2D\""
par Network.masterEnb.cellularNic.mac typename "\"simu5g.stack.mac.LteMacEnbD2D\""
par Network.masterEnb.cellularNic.mac interfaceTableModule "\"Network.masterEnb.interfaceTable\""
par Network.masterEnb.cellularNic.mac interfaceName "\"cellular\""
par Network.masterEnb.cellularNic.mac queueSize 2097152B
attr unit B
par Network.masterEnb.cellularNic.mac muMimo true
par Network.masterEnb.cellularNic.mac harqProcesses 8
par Network.masterEnb.cellularNic.mac maxHarqRtx 3
par Network.masterEnb.cellularNic.mac harqFbEvaluationTimer 4
par Network.masterEnb.cellularNic.mac statDisplay false
par Network.masterEnb.cellularNic.mac amcType "\"LteAmc\""
par Network.masterEnb.cellularNic.mac amcMode "\"AUTO\""
par Network.masterEnb.cellularNic.mac muMimoMinDistance 50
par Network.masterEnb.cellularNic.mac rbAllocationType "\"localized\""
par Network.masterEnb.cellularNic.mac summaryLowerBound 0.005s
attr unit s
par Network.masterEnb.cellularNic.mac summaryUpperBound 0.02s
attr unit s
par Network.masterEnb.cellularNic.mac fbhbCapacityDl 5
par Network.masterEnb.cellularNic.mac fbhbCapacityUl 5
par Network.masterEnb.cellularNic.mac fbhbCapacityD2D 5
par Network.masterEnb.cellularNic.mac pmiWeight 0
par Network.masterEnb.cellularNic.mac cqiWeight 0
par Network.masterEnb.cellularNic.mac eNodeBCount 0
par Network.masterEnb.cellularNic.mac schedulingDisciplineDl "\"MAXCI\""
par Network.masterEnb.cellularNic.mac schedulingDisciplineUl "\"MAXCI\""
par Network.masterEnb.cellularNic.mac pfAlpha 0.95
par Network.masterEnb.cellularNic.mac pilotMode "\"ROBUST_CQI\""
par Network.masterEnb.cellularNic.mac usePreconfiguredTxParams false
par Network.masterEnb.cellularNic.mac d2dCqi 7
par Network.masterEnb.cellularNic.mac reuseD2D false
par Network.masterEnb.cellularNic.mac reuseD2DMulti false
par Network.masterEnb.cellularNic.mac conflictGraphUpdatePeriod 1s
attr unit s
par Network.masterEnb.cellularNic.mac conflictGraphThreshold 90
par Network.masterEnb.cellularNic.mac conflictGraphD2DInterferenceRadius -1m
attr unit m
par Network.masterEnb.cellularNic.mac conflictGraphD2DMultiTxRadius -1m
attr unit m
par Network.masterEnb.cellularNic.mac conflictGraphD2DMultiInterferenceRadius -1m
attr unit m
par Network.masterEnb.cellularNic.mac msHarqInterrupt true
par Network.masterEnb.cellularNic.mac msClearRlcBuffer true
par Network.masterEnb.cellularNic.phy typename "\"simu5g.stack.phy.LtePhyEnbD2D\""
par Network.masterEnb.cellularNic.phy ueTxPower 26
par Network.masterEnb.cellularNic.phy eNodeBTxPower 46
par Network.masterEnb.cellularNic.phy microTxPower 30
par Network.masterEnb.cellularNic.phy txDirection "\"OMNI\""
par Network.masterEnb.cellularNic.phy txAngle 0
par Network.masterEnb.cellularNic.phy dynamicCellAssociation true
par Network.masterEnb.cellularNic.phy enableHandover false
par Network.masterEnb.cellularNic.phy handoverLatency 0.05s
attr unit s
par Network.masterEnb.cellularNic.phy hysteresisFactor 10
par Network.masterEnb.cellularNic.phy enableMulticastD2DRangeCheck false
par Network.masterEnb.cellularNic.phy multicastD2DRange 1000m
attr unit m
par Network.masterEnb.cellularNic.phy targetBler 0.01
par Network.masterEnb.cellularNic.phy lambdaMinTh 0.02
par Network.masterEnb.cellularNic.phy lambdaMaxTh 0.2
par Network.masterEnb.cellularNic.phy lambdaRatioTh 20
par Network.masterEnb.cellularNic.phy enableD2DCqiReporting true
par Network.masterEnb.cellularNic.channelModel[0] typename "\"simu5g.stack.phy.ChannelModel.LteRealisticChannelModel\""
par Network.masterEnb.cellularNic.channelModel[0] componentCarrierIndex 0
par Network.masterEnb.cellularNic.channelModel[0] shadowing true
par Network.masterEnb.cellularNic.channelModel[0] scenario "\"URBAN_MICROCELL\""
par Network.masterEnb.cellularNic.channelModel[0] nodeb_height 25
par Network.masterEnb.cellularNic.channelModel[0] building_height 20
par Network.masterEnb.cellularNic.channelModel[0] inside_building false
par Network.masterEnb.cellularNic.channelModel[0] street_wide 20
par Network.masterEnb.cellularNic.channelModel[0] ue_height 1.5
par Network.masterEnb.cellularNic.channelModel[0] tolerateMaxDistViolation false
par Network.masterEnb.cellularNic.channelModel[0] useTorus false
par Network.masterEnb.cellularNic.channelModel[0] correlation_distance 50
par Network.masterEnb.cellularNic.channelModel[0] targetBler 0.01
par Network.masterEnb.cellularNic.channelModel[0] harqReduction 0.2
par Network.masterEnb.cellularNic.channelModel[0] lambdaMinTh 0.02
par Network.masterEnb.cellularNic.channelModel[0] lambdaMaxTh 0.2
par Network.masterEnb.cellularNic.channelModel[0] lambdaRatioTh 20
par Network.masterEnb.cellularNic.channelModel[0] antennaGainUe 0
par Network.masterEnb.cellularNic.channelModel[0] antennGainEnB 18
par Network.masterEnb.cellularNic.channelModel[0] antennGainMicro 5
par Network.masterEnb.cellularNic.channelModel[0] thermalNoise -104.5
par Network.masterEnb.cellularNic.channelModel[0] ue_noise_figure 7
par Network.masterEnb.cellularNic.channelModel[0] bs_noise_figure 5
par Network.masterEnb.cellularNic.channelModel[0] cable_loss 2
par Network.masterEnb.cellularNic.channelModel[0] dynamic_los false
par Network.masterEnb.cellularNic.channelModel[0] fixed_los false
par Network.masterEnb.cellularNic.channelModel[0] fading true
par Network.masterEnb.cellularNic.channelModel[0] fading_type "\"JAKES\""
par Network.masterEnb.cellularNic.channelModel[0] fading_paths 6
par Network.masterEnb.cellularNic.channelModel[0] delay_rms 3.63e-07
par Network.masterEnb.cellularNic.channelModel[0] bgCell_interference true
par Network.masterEnb.cellularNic.channelModel[0] extCell_interference true
par Network.masterEnb.cellularNic.channelModel[0] downlink_interference true
par Network.masterEnb.cellularNic.channelModel[0] uplink_interference true
par Network.masterEnb.cellularNic.channelModel[0] d2d_interference true
par Network.masterEnb.cellularNic.channelModel[0] enable_extCell_los false
par Network.masterEnb.cellularNic.channelModel[0] useRsrqFromLog false
par Network.masterEnb.cellularNic.channelModel[0] rsrqShift 22
par Network.masterEnb.cellularNic.channelModel[0] rsrqScale 1
par Network.masterEnb.cellularNic.channelModel[0] collectSinrStatistics true
par Network.masterEnb.cellularNic.x2Manager typename "\"simu5g.x2.LteX2Manager\""
par Network.masterEnb.cellularNic.handoverManager typename "\"simu5g.stack.handoverManager.LteHandoverManager\""
par Network.masterEnb.cellularNic.handoverManager losslessHandover false
par Network.masterEnb.cellularNic.dualConnectivityManager typename "\"simu5g.stack.dualConnectivityManager.DualConnectivityManager\""
par Network.masterEnb.cellularNic.bgTrafficGenerator[0].manager typename "\"simu5g.stack.backgroundTrafficGenerator.BackgroundTrafficManager\""
par Network.masterEnb.cellularNic.bgTrafficGenerator[0] typename "\"simu5g.stack.backgroundTrafficGenerator.BackgroundTrafficGenerator\""
par Network.masterEnb.cellularNic.bgTrafficGenerator[0] numBgUes 0
par Network.masterEnb.cellularNic.bgTrafficGenerator[0] bgTrafficManagerType "\"BackgroundTrafficManager\""
par Network.masterEnb.cellularNic.bgTrafficGenerator[0] enablePeriodicCqiUpdate true
par Network.masterEnb.cellularNic.bgTrafficGenerator[0] useProbabilisticCqi false
par Network.masterEnb.cellularNic.bgTrafficGenerator[0] computeAvgInterference false
par Network.masterEnb.cellularNic.d2dModeSelection typename "\"simu5g.stack.d2dModeSelection.D2DModeSelectionBase\""
par Network.masterEnb.cellularNic.d2dModeSelection modeSelectionPeriod 1s
attr unit s
par Network.masterEnb.cellularNic typename "\"simu5g.stack.LteNicEnbD2D\""
par Network.masterEnb.cellularNic displayStringTextFormat "\"%a (%i)\\n%m\""
par Network.masterEnb.cellularNic recordPcap false
par Network.masterEnb.cellularNic numPcapRecorders 0
par Network.masterEnb.cellularNic isWireless true
par Network.masterEnb.cellularNic interfaceTableModule "\"Network.masterEnb.interfaceTable\""
par Network.masterEnb.cellularNic routingTableModule "\"^.ipv4.routingTable\""
par Network.masterEnb.cellularNic LtePdcpRrcType "\"NRPdcpRrcEnb\""
par Network.masterEnb.cellularNic LteMacType "\"LteMacEnbD2D\""
par Network.masterEnb.cellularNic PacketFlowManagerType "\"PacketFlowManagerEnb\""
par Network.masterEnb.cellularNic hasRNISupport false
par Network.masterEnb.cellularNic LtePhyType "\"LtePhyEnbD2D\""
par Network.masterEnb.cellularNic nodeType "\"ENODEB\""
par Network.masterEnb.cellularNic processingDelayIn 0s
attr unit s
par Network.masterEnb.cellularNic processingDelayOut 0s
attr unit s
par Network.masterEnb.cellularNic LteChannelModelType "\"LteRealisticChannelModel\""
par Network.masterEnb.cellularNic d2dCapable true
par Network.masterEnb.cellularNic dualConnectivityEnabled true
par Network.masterEnb.cellularNic numCarriers 1
par Network.masterEnb.cellularNic address "\"0A-AA-00-00-00-01\""
attr mutable ""
par Network.masterEnb.cellularNic compEnabled false
par Network.masterEnb.cellularNic LteCompManagerType "\"LteCompManagerProportional\""
par Network.masterEnb.cellularNic d2dModeSelectionType "\"D2DModeSelectionBase\""
par Network.masterEnb.pppIf.phys$i.channel typename "\"ned.IdealChannel\""
par Network.masterEnb.pppIf.ppp.phys$o.channel typename "\"ned.IdealChannel\""
par Network.masterEnb.pppIf.ppp.upperLayerOut.channel typename "\"ned.IdealChannel\""
par Network.masterEnb.pppIf.upperLayerIn.channel typename "\"ned.IdealChannel\""
par Network.masterEnb.pppIf.queue typename "\"inet.queueing.queue.DropTailQueue\""
par Network.masterEnb.pppIf.queue displayStringTextFormat "\"contains %p pk (%l) pushed %u\\npulled %o removed %r dropped %d\""
par Network.masterEnb.pppIf.queue packetCapacity 10000
par Network.masterEnb.pppIf.queue dataCapacity -1b
attr unit b
par Network.masterEnb.pppIf.queue dropperClass "\"inet::queueing::PacketAtCollectionEndDropper\""
par Network.masterEnb.pppIf.queue comparatorClass "\"\""
par Network.masterEnb.pppIf.queue bufferModule "\"\""
par Network.masterEnb.pppIf.ppp typename "\"inet.linklayer.ppp.Ppp\""
par Network.masterEnb.pppIf.ppp interfaceTableModule "\"Network.masterEnb.interfaceTable\""
par Network.masterEnb.pppIf.ppp displayStringTextFormat "\"rate: %b\\nsent: %s, rcvd: %r\\nqueue: %q, drop: %d\""
par Network.masterEnb.pppIf.ppp sendRawBytes false
par Network.masterEnb.pppIf.ppp mtu 4470B
attr unit B
par Network.masterEnb.pppIf.ppp stopOperationExtraTime -1s
attr unit s
par Network.masterEnb.pppIf.ppp stopOperationTimeout 2s
attr unit s
par Network.masterEnb.pppIf typename "\"inet.linklayer.ppp.PppInterface\""
par Network.masterEnb.pppIf displayStringTextFormat "\"%a (%i)\\n%m\""
par Network.masterEnb.pppIf recordPcap false
par Network.masterEnb.pppIf numPcapRecorders 0
par Network.masterEnb.pppIf interfaceTableModule "\"Network.masterEnb.interfaceTable\""
par Network.masterEnb.x2ppp[0].phys$i.channel typename "\"ned.IdealChannel\""
par Network.masterEnb.x2ppp[0].ppp.phys$o.channel typename "\"ned.IdealChannel\""
par Network.masterEnb.x2ppp[0].ppp.upperLayerOut.channel typename "\"ned.IdealChannel\""
par Network.masterEnb.x2ppp[0].upperLayerIn.channel typename "\"ned.IdealChannel\""
par Network.masterEnb.x2ppp[0].queue typename "\"inet.queueing.queue.DropTailQueue\""
par Network.masterEnb.x2ppp[0].queue displayStringTextFormat "\"contains %p pk (%l) pushed %u\\npulled %o removed %r dropped %d\""
par Network.masterEnb.x2ppp[0].queue packetCapacity 10000
par Network.masterEnb.x2ppp[0].queue dataCapacity -1b
attr unit b
par Network.masterEnb.x2ppp[0].queue dropperClass "\"inet::queueing::PacketAtCollectionEndDropper\""
par Network.masterEnb.x2ppp[0].queue comparatorClass "\"\""
par Network.masterEnb.x2ppp[0].queue bufferModule "\"\""
par Network.masterEnb.x2ppp[0].ppp typename "\"inet.linklayer.ppp.Ppp\""
par Network.masterEnb.x2ppp[0].ppp interfaceTableModule "\"Network.masterEnb.interfaceTable\""
par Network.masterEnb.x2ppp[0].ppp displayStringTextFormat "\"rate: %b\\nsent: %s, rcvd: %r\\nqueue: %q, drop: %d\""
par Network.masterEnb.x2ppp[0].ppp sendRawBytes false
par Network.masterEnb.x2ppp[0].ppp mtu 4470B
attr unit B
par Network.masterEnb.x2ppp[0].ppp stopOperationExtraTime -1s
attr unit s
par Network.masterEnb.x2ppp[0].ppp stopOperationTimeout 2s
attr unit s
par Network.masterEnb.x2ppp[0] typename "\"inet.linklayer.ppp.PppInterface\""
par Network.masterEnb.x2ppp[0] displayStringTextFormat "\"%a (%i)\\n%m\""
par Network.masterEnb.x2ppp[0] recordPcap false
par Network.masterEnb.x2ppp[0] numPcapRecorders 0
par Network.masterEnb.x2ppp[0] interfaceTableModule "\"Network.masterEnb.interfaceTable\""
par Network.masterEnb.x2ppp[1].phys$i.channel typename "\"ned.IdealChannel\""
par Network.masterEnb.x2ppp[1].ppp.phys$o.channel typename "\"ned.IdealChannel\""
par Network.masterEnb.x2ppp[1].ppp.upperLayerOut.channel typename "\"ned.IdealChannel\""
par Network.masterEnb.x2ppp[1].upperLayerIn.channel typename "\"ned.IdealChannel\""
par Network.masterEnb.x2ppp[1].queue typename "\"inet.queueing.queue.DropTailQueue\""
par Network.masterEnb.x2ppp[1].queue displayStringTextFormat "\"contains %p pk (%l) pushed %u\\npulled %o removed %r dropped %d\""
par Network.masterEnb.x2ppp[1].queue packetCapacity 10000
par Network.masterEnb.x2ppp[1].queue dataCapacity -1b
attr unit b
par Network.masterEnb.x2ppp[1].queue dropperClass "\"inet::queueing::PacketAtCollectionEndDropper\""
par Network.masterEnb.x2ppp[1].queue comparatorClass "\"\""
par Network.masterEnb.x2ppp[1].queue bufferModule "\"\""
par Network.masterEnb.x2ppp[1].ppp typename "\"inet.linklayer.ppp.Ppp\""
par Network.masterEnb.x2ppp[1].ppp interfaceTableModule "\"Network.masterEnb.interfaceTable\""
par Network.masterEnb.x2ppp[1].ppp displayStringTextFormat "\"rate: %b\\nsent: %s, rcvd: %r\\nqueue: %q, drop: %d\""
par Network.masterEnb.x2ppp[1].ppp sendRawBytes false
par Network.masterEnb.x2ppp[1].ppp mtu 4470B
attr unit B
par Network.masterEnb.x2ppp[1].ppp stopOperationExtraTime -1s
attr unit s
par Network.masterEnb.x2ppp[1].ppp stopOperationTimeout 2s
attr unit s
par Network.masterEnb.x2ppp[1] typename "\"inet.linklayer.ppp.PppInterface\""
par Network.masterEnb.x2ppp[1] displayStringTextFormat "\"%a (%i)\\n%m\""
par Network.masterEnb.x2ppp[1] recordPcap false
par Network.masterEnb.x2ppp[1] numPcapRecorders 0
par Network.masterEnb.x2ppp[1] interfaceTableModule "\"Network.masterEnb.interfaceTable\""
par Network.masterEnb.x2ppp[2].phys$i.channel typename "\"ned.IdealChannel\""
par Network.masterEnb.x2ppp[2].ppp.phys$o.channel typename "\"ned.IdealChannel\""
par Network.masterEnb.x2ppp[2].ppp.upperLayerOut.channel typename "\"ned.IdealChannel\""
par Network.masterEnb.x2ppp[2].upperLayerIn.channel typename "\"ned.IdealChannel\""
par Network.masterEnb.x2ppp[2].queue typename "\"inet.queueing.queue.DropTailQueue\""
par Network.masterEnb.x2ppp[2].queue displayStringTextFormat "\"contains %p pk (%l) pushed %u\\npulled %o removed %r dropped %d\""
par Network.masterEnb.x2ppp[2].queue packetCapacity 10000
par Network.masterEnb.x2ppp[2].queue dataCapacity -1b
attr unit b
par Network.masterEnb.x2ppp[2].queue dropperClass "\"inet::queueing::PacketAtCollectionEndDropper\""
par Network.masterEnb.x2ppp[2].queue comparatorClass "\"\""
par Network.masterEnb.x2ppp[2].queue bufferModule "\"\""
par Network.masterEnb.x2ppp[2].ppp typename "\"inet.linklayer.ppp.Ppp\""
par Network.masterEnb.x2ppp[2].ppp interfaceTableModule "\"Network.masterEnb.interfaceTable\""
par Network.masterEnb.x2ppp[2].ppp displayStringTextFormat "\"rate: %b\\nsent: %s, rcvd: %r\\nqueue: %q, drop: %d\""
par Network.masterEnb.x2ppp[2].ppp sendRawBytes false
par Network.masterEnb.x2ppp[2].ppp mtu 4470B
attr unit B
par Network.masterEnb.x2ppp[2].ppp stopOperationExtraTime -1s
attr unit s
par Network.masterEnb.x2ppp[2].ppp stopOperationTimeout 2s
attr unit s
par Network.masterEnb.x2ppp[2] typename "\"inet.linklayer.ppp.PppInterface\""
par Network.masterEnb.x2ppp[2] displayStringTextFormat "\"%a (%i)\\n%m\""
par Network.masterEnb.x2ppp[2] recordPcap false
par Network.masterEnb.x2ppp[2] numPcapRecorders 0
par Network.masterEnb.x2ppp[2] interfaceTableModule "\"Network.masterEnb.interfaceTable\""
par Network.masterEnb.x2ppp[3].phys$i.channel typename "\"ned.IdealChannel\""
par Network.masterEnb.x2ppp[3].ppp.phys$o.channel typename "\"ned.IdealChannel\""
par Network.masterEnb.x2ppp[3].ppp.upperLayerOut.channel typename "\"ned.IdealChannel\""
par Network.masterEnb.x2ppp[3].upperLayerIn.channel typename "\"ned.IdealChannel\""
par Network.masterEnb.x2ppp[3].queue typename "\"inet.queueing.queue.DropTailQueue\""
par Network.masterEnb.x2ppp[3].queue displayStringTextFormat "\"contains %p pk (%l) pushed %u\\npulled %o removed %r dropped %d\""
par Network.masterEnb.x2ppp[3].queue packetCapacity 10000
par Network.masterEnb.x2ppp[3].queue dataCapacity -1b
attr unit b
par Network.masterEnb.x2ppp[3].queue dropperClass "\"inet::queueing::PacketAtCollectionEndDropper\""
par Network.masterEnb.x2ppp[3].queue comparatorClass "\"\""
par Network.masterEnb.x2ppp[3].queue bufferModule "\"\""
par Network.masterEnb.x2ppp[3].ppp typename "\"inet.linklayer.ppp.Ppp\""
par Network.masterEnb.x2ppp[3].ppp interfaceTableModule "\"Network.masterEnb.interfaceTable\""
par Network.masterEnb.x2ppp[3].ppp displayStringTextFormat "\"rate: %b\\nsent: %s, rcvd: %r\\nqueue: %q, drop: %d\""
par Network.masterEnb.x2ppp[3].ppp sendRawBytes false
par Network.masterEnb.x2ppp[3].ppp mtu 4470B
attr unit B
par Network.masterEnb.x2ppp[3].ppp stopOperationExtraTime -1s
attr unit s
par Network.masterEnb.x2ppp[3].ppp stopOperationTimeout 2s
attr unit s
par Network.masterEnb.x2ppp[3] typename "\"inet.linklayer.ppp.PppInterface\""
par Network.masterEnb.x2ppp[3] displayStringTextFormat "\"%a (%i)\\n%m\""
par Network.masterEnb.x2ppp[3] recordPcap false
par Network.masterEnb.x2ppp[3] numPcapRecorders 0
par Network.masterEnb.x2ppp[3] interfaceTableModule "\"Network.masterEnb.interfaceTable\""
par Network.masterEnb.x2ppp[4].phys$i.channel typename "\"ned.IdealChannel\""
par Network.masterEnb.x2ppp[4].ppp.phys$o.channel typename "\"ned.IdealChannel\""
par Network.masterEnb.x2ppp[4].ppp.upperLayerOut.channel typename "\"ned.IdealChannel\""
par Network.masterEnb.x2ppp[4].upperLayerIn.channel typename "\"ned.IdealChannel\""
par Network.masterEnb.x2ppp[4].queue typename "\"inet.queueing.queue.DropTailQueue\""
par Network.masterEnb.x2ppp[4].queue displayStringTextFormat "\"contains %p pk (%l) pushed %u\\npulled %o removed %r dropped %d\""
par Network.masterEnb.x2ppp[4].queue packetCapacity 10000
par Network.masterEnb.x2ppp[4].queue dataCapacity -1b
attr unit b
par Network.masterEnb.x2ppp[4].queue dropperClass "\"inet::queueing::PacketAtCollectionEndDropper\""
par Network.masterEnb.x2ppp[4].queue comparatorClass "\"\""
par Network.masterEnb.x2ppp[4].queue bufferModule "\"\""
par Network.masterEnb.x2ppp[4].ppp typename "\"inet.linklayer.ppp.Ppp\""
par Network.masterEnb.x2ppp[4].ppp interfaceTableModule "\"Network.masterEnb.interfaceTable\""
par Network.masterEnb.x2ppp[4].ppp displayStringTextFormat "\"rate: %b\\nsent: %s, rcvd: %r\\nqueue: %q, drop: %d\""
par Network.masterEnb.x2ppp[4].ppp sendRawBytes false
par Network.masterEnb.x2ppp[4].ppp mtu 4470B
attr unit B
par Network.masterEnb.x2ppp[4].ppp stopOperationExtraTime -1s
attr unit s
[...]
par Network.ue[0].cellularNic.channelModel[0] inside_building false
par Network.ue[0].cellularNic.channelModel[0] street_wide 20
par Network.ue[0].cellularNic.channelModel[0] ue_height 1.5
par Network.ue[0].cellularNic.channelModel[0] tolerateMaxDistViolation false
par Network.ue[0].cellularNic.channelModel[0] useTorus false
par Network.ue[0].cellularNic.channelModel[0] correlation_distance 50
par Network.ue[0].cellularNic.channelModel[0] targetBler 0.01
par Network.ue[0].cellularNic.channelModel[0] harqReduction 0.2
par Network.ue[0].cellularNic.channelModel[0] lambdaMinTh 0.02
par Network.ue[0].cellularNic.channelModel[0] lambdaMaxTh 0.2
par Network.ue[0].cellularNic.channelModel[0] lambdaRatioTh 20
par Network.ue[0].cellularNic.channelModel[0] antennaGainUe 0
par Network.ue[0].cellularNic.channelModel[0] antennGainEnB 18
par Network.ue[0].cellularNic.channelModel[0] antennGainMicro 5
par Network.ue[0].cellularNic.channelModel[0] thermalNoise -104.5
par Network.ue[0].cellularNic.channelModel[0] ue_noise_figure 7
par Network.ue[0].cellularNic.channelModel[0] bs_noise_figure 5
par Network.ue[0].cellularNic.channelModel[0] cable_loss 2
par Network.ue[0].cellularNic.channelModel[0] dynamic_los false
par Network.ue[0].cellularNic.channelModel[0] fixed_los false
par Network.ue[0].cellularNic.channelModel[0] fading true
par Network.ue[0].cellularNic.channelModel[0] fading_type "\"JAKES\""
par Network.ue[0].cellularNic.channelModel[0] fading_paths 6
par Network.ue[0].cellularNic.channelModel[0] delay_rms 3.63e-07
par Network.ue[0].cellularNic.channelModel[0] bgCell_interference true
par Network.ue[0].cellularNic.channelModel[0] extCell_interference true
par Network.ue[0].cellularNic.channelModel[0] downlink_interference true
par Network.ue[0].cellularNic.channelModel[0] uplink_interference true
par Network.ue[0].cellularNic.channelModel[0] d2d_interference true
par Network.ue[0].cellularNic.channelModel[0] enable_extCell_los false
par Network.ue[0].cellularNic.channelModel[0] useRsrqFromLog false
par Network.ue[0].cellularNic.channelModel[0] rsrqShift 22
par Network.ue[0].cellularNic.channelModel[0] rsrqScale 1
par Network.ue[0].cellularNic.channelModel[0] collectSinrStatistics true
par Network.ue[0].cellularNic.dlFbGen typename "\"simu5g.stack.phy.feedback.LteDlFeedbackGenerator\""
par Network.ue[0].cellularNic.dlFbGen feedbackType "\"ALLBANDS\""
par Network.ue[0].cellularNic.dlFbGen rbAllocationType "\"localized\""
par Network.ue[0].cellularNic.dlFbGen fbPeriod 6
par Network.ue[0].cellularNic.dlFbGen fbDelay 1
par Network.ue[0].cellularNic.dlFbGen usePeriodic true
par Network.ue[0].cellularNic.dlFbGen initialTxMode "\"SINGLE_ANTENNA_PORT0\""
par Network.ue[0].cellularNic.dlFbGen feedbackGeneratorType "\"IDEAL\""
par Network.ue[0].cellularNic.nrRlc.tm typename "\"simu5g.stack.rlc.LteRlcTm\""
par Network.ue[0].cellularNic.nrRlc.tm queueSize 2097152B
attr unit B
par Network.ue[0].cellularNic.nrRlc.um typename "\"simu5g.stack.rlc.LteRlcUmD2D\""
par Network.ue[0].cellularNic.nrRlc.um queueSize 2097152B
attr unit B
par Network.ue[0].cellularNic.nrRlc.um mapAllLcidsToSingleBearer false
par Network.ue[0].cellularNic.nrRlc.am typename "\"simu5g.stack.rlc.LteRlcAm\""
par Network.ue[0].cellularNic.nrRlc.mux typename "\"simu5g.stack.rlc.LteRlcMux\""
par "Network.ue[0].cellularNic.nrRlc.UmRxEntity Lcid: 1 cid: 134283265" typename "\"simu5g.stack.rlc.UmRxEntity\""
par "Network.ue[0].cellularNic.nrRlc.UmRxEntity Lcid: 1 cid: 134283265" timeout 1s
attr unit s
par "Network.ue[0].cellularNic.nrRlc.UmRxEntity Lcid: 1 cid: 134283265" rxWindowSize 16
par Network.ue[0].cellularNic.nrRlc typename "\"simu5g.stack.rlc.LteRlc\""
par Network.ue[0].cellularNic.nrRlc LteRlcUmType "\"LteRlcUm\""
par Network.ue[0].cellularNic.nrRlc d2dCapable true
par Network.ue[0].cellularNic.nrRlc umType "\"LteRlcUmD2D\""
par Network.ue[0].cellularNic.nrMac typename "\"simu5g.stack.mac.NRMacUe\""
par Network.ue[0].cellularNic.nrMac interfaceTableModule "\"Network.ue[0].interfaceTable\""
par Network.ue[0].cellularNic.nrMac interfaceName "\"cellular\""
par Network.ue[0].cellularNic.nrMac queueSize 2097152B
attr unit B
par Network.ue[0].cellularNic.nrMac muMimo true
par Network.ue[0].cellularNic.nrMac harqProcesses 8
par Network.ue[0].cellularNic.nrMac maxHarqRtx 3
par Network.ue[0].cellularNic.nrMac harqFbEvaluationTimer 4
par Network.ue[0].cellularNic.nrMac statDisplay false
par Network.ue[0].cellularNic.nrMac usePreconfiguredTxParams false
par Network.ue[0].cellularNic.nrMac d2dCqi 7
par Network.ue[0].cellularNic.nrPhy typename "\"simu5g.stack.phy.NRPhyUe\""
par Network.ue[0].cellularNic.nrPhy ueTxPower 26
par Network.ue[0].cellularNic.nrPhy eNodeBTxPower 46
par Network.ue[0].cellularNic.nrPhy microTxPower 30
par Network.ue[0].cellularNic.nrPhy txDirection "\"OMNI\""
par Network.ue[0].cellularNic.nrPhy txAngle 0
par Network.ue[0].cellularNic.nrPhy dynamicCellAssociation true
par Network.ue[0].cellularNic.nrPhy enableHandover true
par Network.ue[0].cellularNic.nrPhy handoverLatency 0.05s
attr unit s
par Network.ue[0].cellularNic.nrPhy hysteresisFactor 10
scalar Network.ue[0].cellularNic.nrPhy hysteresisFactor 10
par Network.ue[0].cellularNic.nrPhy enableMulticastD2DRangeCheck false
par Network.ue[0].cellularNic.nrPhy multicastD2DRange 1000m
attr unit m
par Network.ue[0].cellularNic.nrPhy minRssiDefault true
par Network.ue[0].cellularNic.nrPhy minRssi -99dB
attr unit dB
par Network.ue[0].cellularNic.nrPhy d2dTxPower 26
par Network.ue[0].cellularNic.nrPhy d2dMulticastCaptureEffect true
par Network.ue[0].cellularNic.nrPhy d2dMulticastCaptureEffectFactor "\"RSRP\""
par Network.ue[0].cellularNic.nrChannelModel[0] typename "\"simu5g.stack.phy.ChannelModel.NRChannelModel_3GPP38_901\""
par Network.ue[0].cellularNic.nrChannelModel[0] componentCarrierIndex 0
par Network.ue[0].cellularNic.nrChannelModel[0] shadowing true
par Network.ue[0].cellularNic.nrChannelModel[0] scenario "\"URBAN_MICROCELL\""
par Network.ue[0].cellularNic.nrChannelModel[0] nodeb_height 25
par Network.ue[0].cellularNic.nrChannelModel[0] building_height 20
par Network.ue[0].cellularNic.nrChannelModel[0] inside_building false
par Network.ue[0].cellularNic.nrChannelModel[0] street_wide 20
par Network.ue[0].cellularNic.nrChannelModel[0] ue_height 1.5
par Network.ue[0].cellularNic.nrChannelModel[0] tolerateMaxDistViolation false
par Network.ue[0].cellularNic.nrChannelModel[0] useTorus false
par Network.ue[0].cellularNic.nrChannelModel[0] correlation_distance 50
par Network.ue[0].cellularNic.nrChannelModel[0] targetBler 0.01
par Network.ue[0].cellularNic.nrChannelModel[0] harqReduction 0.2
par Network.ue[0].cellularNic.nrChannelModel[0] lambdaMinTh 0.02
par Network.ue[0].cellularNic.nrChannelModel[0] lambdaMaxTh 0.2
par Network.ue[0].cellularNic.nrChannelModel[0] lambdaRatioTh 20
par Network.ue[0].cellularNic.nrChannelModel[0] antennaGainUe 0
par Network.ue[0].cellularNic.nrChannelModel[0] antennGainEnB 18
par Network.ue[0].cellularNic.nrChannelModel[0] antennGainMicro 5
par Network.ue[0].cellularNic.nrChannelModel[0] thermalNoise -104.5
par Network.ue[0].cellularNic.nrChannelModel[0] ue_noise_figure 7
par Network.ue[0].cellularNic.nrChannelModel[0] bs_noise_figure 5
par Network.ue[0].cellularNic.nrChannelModel[0] cable_loss 2
par Network.ue[0].cellularNic.nrChannelModel[0] dynamic_los false
par Network.ue[0].cellularNic.nrChannelModel[0] fixed_los false
par Network.ue[0].cellularNic.nrChannelModel[0] fading true
par Network.ue[0].cellularNic.nrChannelModel[0] fading_type "\"JAKES\""
par Network.ue[0].cellularNic.nrChannelModel[0] fading_paths 6
par Network.ue[0].cellularNic.nrChannelModel[0] delay_rms 3.63e-07
par Network.ue[0].cellularNic.nrChannelModel[0] bgCell_interference true
par Network.ue[0].cellularNic.nrChannelModel[0] extCell_interference true
par Network.ue[0].cellularNic.nrChannelModel[0] downlink_interference true
par Network.ue[0].cellularNic.nrChannelModel[0] uplink_interference true
par Network.ue[0].cellularNic.nrChannelModel[0] d2d_interference true
par Network.ue[0].cellularNic.nrChannelModel[0] enable_extCell_los false
par Network.ue[0].cellularNic.nrChannelModel[0] useRsrqFromLog false
par Network.ue[0].cellularNic.nrChannelModel[0] rsrqShift 22
par Network.ue[0].cellularNic.nrChannelModel[0] rsrqScale 1
par Network.ue[0].cellularNic.nrChannelModel[0] collectSinrStatistics true
par Network.ue[0].cellularNic.nrChannelModel[0] useBuildingPenetrationLossHighLossModel false
par Network.ue[0].cellularNic.nrDlFbGen typename "\"simu5g.stack.phy.feedback.LteDlFeedbackGenerator\""
par Network.ue[0].cellularNic.nrDlFbGen feedbackType "\"ALLBANDS\""
par Network.ue[0].cellularNic.nrDlFbGen rbAllocationType "\"localized\""
par Network.ue[0].cellularNic.nrDlFbGen fbPeriod 6
par Network.ue[0].cellularNic.nrDlFbGen fbDelay 1
par Network.ue[0].cellularNic.nrDlFbGen usePeriodic true
par Network.ue[0].cellularNic.nrDlFbGen initialTxMode "\"SINGLE_ANTENNA_PORT0\""
par Network.ue[0].cellularNic.nrDlFbGen feedbackGeneratorType "\"IDEAL\""
par Network.ue[0].cellularNic typename "\"simu5g.stack.NRNicUe\""
par Network.ue[0].cellularNic displayStringTextFormat "\"%a (%i)\\n%m\""
par Network.ue[0].cellularNic recordPcap false
par Network.ue[0].cellularNic numPcapRecorders 0
par Network.ue[0].cellularNic isWireless true
par Network.ue[0].cellularNic interfaceTableModule "\"Network.ue[0].interfaceTable\""
par Network.ue[0].cellularNic routingTableModule "\"^.ipv4.routingTable\""
par Network.ue[0].cellularNic LtePdcpRrcType "\"NRPdcpRrcUe\""
par Network.ue[0].cellularNic LteMacType "\"LteMacUeD2D\""
par Network.ue[0].cellularNic PacketFlowManagerType "\"PacketFlowManagerUe\""
par Network.ue[0].cellularNic hasRNISupport false
par Network.ue[0].cellularNic LtePhyType "\"NRPhyUe\""
par Network.ue[0].cellularNic nodeType "\"UE\""
par Network.ue[0].cellularNic processingDelayIn 0s
attr unit s
par Network.ue[0].cellularNic processingDelayOut 0s
attr unit s
par Network.ue[0].cellularNic LteChannelModelType "\"LteRealisticChannelModel\""
par Network.ue[0].cellularNic d2dCapable true
par Network.ue[0].cellularNic dualConnectivityEnabled true
par Network.ue[0].cellularNic numCarriers 1
par Network.ue[0].cellularNic address "\"0A-AA-00-00-00-07\""
attr mutable ""
par Network.ue[0].cellularNic d2dInitialMode false
par Network.ue[0].cellularNic NRMacType "\"NRMacUe\""
par Network.ue[0].cellularNic NRPhyType "\"NRPhyUe\""
par Network.ue[0].cellularNic NRChannelModelType "\"NRChannelModel_3GPP38_901\""
par Network.ue[0].cellularNic NRPacketFlowManagerType "\"NRPacketFlowManagerUe\""
par Network.ue[0].cellularNic numNRCarriers 1
par Network.ue[0].encap typename "\"inet.linklayer.ethernet.basic.EthernetEncapsulation\""
par Network.ue[0].encap registerProtocol true
par Network.ue[0].encap interfaceTableModule "\"Network.ue[0].interfaceTable\""
par Network.ue[0].encap fcsMode "\"declared\""
attr enum declared,computed
par Network.ue[0].encap stopOperationExtraTime -1s
attr unit s
par Network.ue[0].encap stopOperationTimeout 2s
attr unit s
par Network.ue[0].ipv4.transportIn.channel typename "\"ned.IdealChannel\""
par Network.ue[0].ipv4.up.out[0].channel typename "\"ned.IdealChannel\""
par Network.ue[0].ipv4.lp.out[2].channel typename "\"ned.IdealChannel\""
par Network.ue[0].ipv4.ifIn.channel typename "\"ned.IdealChannel\""
par Network.ue[0].ipv4.configurator typename "\"inet.networklayer.configurator.ipv4.Ipv4NodeConfigurator\""
par Network.ue[0].ipv4.configurator interfaceTableModule "\"Network.ue[0].interfaceTable\""
par Network.ue[0].ipv4.configurator routingTableModule "\"Network.ue[0].ipv4.routingTable\""
par Network.ue[0].ipv4.configurator networkConfiguratorModule "\"configurator\""
par Network.ue[0].ipv4.configurator configureRoutingTable true
par Network.ue[0].ipv4.routingTable typename "\"inet.networklayer.ipv4.Ipv4RoutingTable\""
par Network.ue[0].ipv4.routingTable interfaceTableModule "\"Network.ue[0].interfaceTable\""
par Network.ue[0].ipv4.routingTable routerId "\"auto\""
par Network.ue[0].ipv4.routingTable netmaskRoutes "\"*\""
par Network.ue[0].ipv4.routingTable forwarding false
par Network.ue[0].ipv4.routingTable multicastForwarding false
par Network.ue[0].ipv4.routingTable useAdminDist false
par Network.ue[0].ipv4.routingTable routingFile "\"\""
par Network.ue[0].ipv4.natTable typename "\"inet.networklayer.ipv4.Ipv4NatTable\""
par Network.ue[0].ipv4.natTable networkProtocolModule "\"^.ip\""
par Network.ue[0].ipv4.natTable config "<config/> at content:1"
par Network.ue[0].ipv4.up typename "\"inet.common.MessageDispatcher\""
par Network.ue[0].ipv4.up displayStringTextFormat "\"processed %p pk (%l)\""
par Network.ue[0].ipv4.up forwardServiceRegistration true
par Network.ue[0].ipv4.up forwardProtocolRegistration true
par Network.ue[0].ipv4.igmp typename "\"inet.networklayer.ipv4.Igmpv2\""
par Network.ue[0].ipv4.igmp interfaceTableModule "\"Network.ue[0].interfaceTable\""
par Network.ue[0].ipv4.igmp routingTableModule "\"Network.ue[0].ipv4.routingTable\""
par Network.ue[0].ipv4.igmp crcMode "\"declared\""
attr enum declared,computed
par Network.ue[0].ipv4.igmp enabled true
par Network.ue[0].ipv4.igmp robustnessVariable 2
par Network.ue[0].ipv4.igmp queryInterval 125s
attr unit s
par Network.ue[0].ipv4.igmp queryResponseInterval 10s
attr unit s
par Network.ue[0].ipv4.igmp groupMembershipInterval 260s
attr unit s
par Network.ue[0].ipv4.igmp otherQuerierPresentInterval 255s
attr unit s
par Network.ue[0].ipv4.igmp startupQueryInterval 31.25s
attr unit s
par Network.ue[0].ipv4.igmp startupQueryCount 2
par Network.ue[0].ipv4.igmp lastMemberQueryInterval 1s
attr unit s
par Network.ue[0].ipv4.igmp lastMemberQueryCount 2
par Network.ue[0].ipv4.igmp unsolicitedReportInterval 10s
attr unit s
par Network.ue[0].ipv4.icmp typename "\"inet.networklayer.ipv4.Icmp\""
par Network.ue[0].ipv4.icmp interfaceTableModule "\"Network.ue[0].interfaceTable\""
par Network.ue[0].ipv4.icmp routingTableModule "\"Network.ue[0].ipv4.routingTable\""
par Network.ue[0].ipv4.icmp crcMode "\"declared\""
attr enum declared,computed
attr mutable ""
par Network.ue[0].ipv4.icmp quoteLength 8B
attr mutable ""
attr unit B
par Network.ue[0].ipv4.mp typename "\"inet.common.MessageDispatcher\""
par Network.ue[0].ipv4.mp displayStringTextFormat "\"processed %p pk (%l)\""
par Network.ue[0].ipv4.mp forwardServiceRegistration true
par Network.ue[0].ipv4.mp forwardProtocolRegistration true
par Network.ue[0].ipv4.ip typename "\"inet.networklayer.ipv4.Ipv4\""
par Network.ue[0].ipv4.ip interfaceTableModule "\"Network.ue[0].interfaceTable\""
par Network.ue[0].ipv4.ip routingTableModule "\"Network.ue[0].ipv4.routingTable\""
par Network.ue[0].ipv4.ip arpModule "\"Network.ue[0].ipv4.arp\""
par Network.ue[0].ipv4.ip icmpModule "\"Network.ue[0].ipv4.icmp\""
par Network.ue[0].ipv4.ip crcMode "\"declared\""
attr enum declared,computed
par Network.ue[0].ipv4.ip timeToLive 32
par Network.ue[0].ipv4.ip multicastTimeToLive 32
par Network.ue[0].ipv4.ip fragmentTimeout 60s
attr unit s
par Network.ue[0].ipv4.ip limitedBroadcast false
par Network.ue[0].ipv4.ip directBroadcastInterfaces "\"\""
par Network.ue[0].ipv4.arp typename "\"inet.networklayer.arp.ipv4.Arp\""
par Network.ue[0].ipv4.arp interfaceTableModule "\"Network.ue[0].interfaceTable\""
par Network.ue[0].ipv4.arp routingTableModule "\"Network.ue[0].ipv4.routingTable\""
par Network.ue[0].ipv4.arp retryTimeout 1s
attr unit s
par Network.ue[0].ipv4.arp retryCount 3
par Network.ue[0].ipv4.arp cacheTimeout 120s
attr unit s
par Network.ue[0].ipv4.arp proxyArpInterfaces "\"*\""
par Network.ue[0].ipv4.lp typename "\"inet.common.MessageDispatcher\""
par Network.ue[0].ipv4.lp displayStringTextFormat "\"processed %p pk (%l)\""
par Network.ue[0].ipv4.lp forwardServiceRegistration true
par Network.ue[0].ipv4.lp forwardProtocolRegistration true
par Network.ue[0].ipv4 typename "\"inet.networklayer.ipv4.Ipv4NetworkLayer\""
par Network.ue[0].ipv4 forwarding false
par Network.ue[0].ipv4 multicastForwarding false
par Network.ue[0].ipv4 interfaceTableModule "\"Network.ue[0].interfaceTable\""
par Network.ue[0].ipv4 displayStringTextFormat "\"%i\""
par Network.ue[0].udp typename "\"inet.transportlayer.udp.Udp\""
par Network.ue[0].udp interfaceTableModule "\"Network.ue[0].interfaceTable\""
par Network.ue[0].udp icmpModule "\"^.ipv4.icmp\""
par Network.ue[0].udp icmpv6Module "\"^.ipv6.icmpv6\""
par Network.ue[0].udp crcMode "\"declared\""
attr enum disabled,declared,computed
par Network.ue[0].udp defaultMulticastLoop true
par Network.ue[0].tcp typename "\"inet.transportlayer.tcp.Tcp\""
par Network.ue[0].tcp crcMode "\"declared\""
attr enum declared,computed
par Network.ue[0].tcp advertisedWindow 7504
par Network.ue[0].tcp delayedAcksEnabled false
par Network.ue[0].tcp nagleEnabled true
par Network.ue[0].tcp limitedTransmitEnabled false
par Network.ue[0].tcp increasedIWEnabled false
par Network.ue[0].tcp sackSupport false
par Network.ue[0].tcp windowScalingSupport false
par Network.ue[0].tcp windowScalingFactor -1
par Network.ue[0].tcp timestampSupport false
par Network.ue[0].tcp mss 536
par Network.ue[0].tcp msl 120s
attr unit s
par Network.ue[0].tcp tcpAlgorithmClass "\"TcpReno\""
attr enum TcpVegas,TcpWestwood,TcpNewReno,TcpReno,TcpTahoe,TcpNoCongestionControl
par Network.ue[0].tcp useDataNotification false
par Network.ue[0].tcp dupthresh 3
par Network.ue[0].tcp initialSsthresh 4294967295
par Network.ue[0].tcp stopOperationExtraTime 0s
attr unit s
par Network.ue[0].tcp stopOperationTimeout 2s
attr unit s
par Network.ue[0].tcp ecnWillingness false
par Network.ue[0].tcp dctcpGamma 0.0625
par Network.ue[0].app[0] typename "\"simu5g.apps.voip.VoIPReceiver\""
par Network.ue[0].app[0] localPort 3000
par Network.ue[0].app[0] emodel_Ie_ 5
par Network.ue[0].app[0] emodel_Bpl_ 10
par Network.ue[0].app[0] emodel_A_ 5
par Network.ue[0].app[0] emodel_Ro_ 93.2
par Network.ue[0].app[0] playout_delay 0s
attr unit s
par Network.ue[0].app[0] dim_buffer 20
par Network.ue[0].app[0] sampling_time 0.02s
attr unit s
par Network.ue[0].at typename "\"inet.common.MessageDispatcher\""
par Network.ue[0].at displayStringTextFormat "\"processed %p pk (%l)\""
par Network.ue[0].at forwardServiceRegistration true
par Network.ue[0].at forwardProtocolRegistration true
par Network.ue[0].tn typename "\"inet.common.MessageDispatcher\""
par Network.ue[0].tn displayStringTextFormat "\"processed %p pk (%l)\""
par Network.ue[0].tn forwardServiceRegistration true
par Network.ue[0].tn forwardProtocolRegistration true
par Network.ue[0].nl typename "\"inet.common.MessageDispatcher\""
par Network.ue[0].nl displayStringTextFormat "\"processed %p pk (%l)\""
par Network.ue[0].nl forwardServiceRegistration true
par Network.ue[0].nl forwardProtocolRegistration true
par Network.ue[0] typename "\"simu5g.nodes.NR.NRUe\""
par Network.ue[0] numApps 1
par Network.ue[0] hasUdp true
par Network.ue[0] hasTcp true
par Network.ue[0] hasSctp false
par Network.ue[0] nodeType "\"UE\""
par Network.ue[0] masterId 1
attr mutable ""
par Network.ue[0] macNodeId 1025
attr mutable ""
par Network.ue[0] macCellId 1
attr mutable ""
par Network.ue[0] nicType "\"NRNicUe\""
par Network.ue[0] hasIpv4 true
par Network.ue[0] hasIpv6 false
par Network.ue[0] numEthInterfaces 0
par Network.ue[0] extHostAddress "\"\""
par Network.ue[0] numLoInterfaces 1
par Network.ue[0] numPcapRecorders 0
par Network.ue[0] hasRNISupport false
par Network.ue[0] nrMasterId 6
attr mutable ""
par Network.ue[0] nrMacNodeId 2049
attr mutable ""
par Network.ue[0] nrMacCellId 2
attr mutable ""
par Network typename "\"simu5g.simulations.Custom.generate.Network\""
par Network numUe 1
par Network numBgCells 1

