version 3
run Urban_Microcell-0-20230220-15:04:53-23676
attr configname Urban_Microcell
attr datetime 20230220-15:04:53
attr datetimef 20230220-150453
attr experiment Urban_Microcell
attr inifile omnetpp.ini
attr iterationvars ""
attr iterationvarsd ""
attr iterationvarsf ""
attr measurement ""
attr network Network
attr processid 23676
attr repetition 0
attr replication #0
attr resultdir results
attr runnumber 0
attr seedset 0
config image-path ../../../images;../../../../inet4.4/images
config extends General
config description "Scenario: Urban Microcell"
config **.scenario "\"URBAN_MICROCELL\""
config network Network
config description "Dual connectivity, secondary only with handover, Voice-over-IP (downlink)"
config image-path ../../../images
config output-scalar-file-append false
config output-vector-file-append false
config sim-time-limit 200s
config seed-set 0
config output-scalar-file results/Urban_Microcell/-0.sca
config output-vector-file results/Urban_Microcell/-0.vec
config **.positionX:vector.vector-recording true
config **.positionY:vector.vector-recording true
config **.servingRSRP:vector.vector-recording true
config **.servingSINR:vector.vector-recording true
config **.servingDistance:vector.vector-recording true
config **.neighborTop1RSRP:vector.vector-recording true
config **.neighborTop1SINR:vector.vector-recording true
config **.neighborTop1Distance:vector.vector-recording true
config **.neighborTop2RSRP:vector.vector-recording true
config **.neighborTop2SINR:vector.vector-recording true
config **.neighborTop2Distance:vector.vector-recording true
config **.nrPhy.averageCqiDl:vector.vector-recording true
config **.nrRlc.um.rlcThroughputDl:vector.vector-recording true
config **.nrMac.macThroughputDl:vector.vector-recording true
config **.voIPReceivedThroughput:vector.vector-recording true
config **.ue[*].cellularNic.nrPhy.hysteresisFactor.param-record-as-scalar true
config **.hysteresisFactor.scalar-recording true
config **.scalar-recording false
config **.vector-recording false
config *.channelControl.carrierFrequency 39GHz
config *.channelControl.numChannels 8
config *.channelControl.pMax 20mW
config *.channelControl.sat -110dBm
config *.channelControl.alpha 2
config *.channelControl.propagationModel "\"RiceModel\""
config *.carrierAggregation.numComponentCarriers 1
config *.carrierAggregation.componentCarrier[*].numBands 6
config *.carrierAggregation.componentCarrier[*].numerologyIndex 0
config *.carrierAggregation.componentCarrier[*].useTdd false
config *.binder.blerShift 0
config *.binder.maxDataRatePerRb 1.16Mbps
config *.masterEnb.txPower 100mw
config *.gnb*.cellInfo.microCell true
config **.ueTxPower 26
config **.eNodeBTxPower 46
config **.microTxPower 30
config **.txDirection "\"OMNI\""
config **.txAngle 0
config **.targetBler 0.01
config *.masterEnb.nicType "\"LteNicEnbD2D\""
config *.masterEnb.cellularNic.LtePdcpRrcType "\"NRPdcpRrcEnb\""
config *.gnb*.masterId 1
config **.dualConnectivityEnabled true
config **.numCarriers 1
config **.numNRCarriers 1
config **.shadowing true
config **.nodeb_height 25
config **.building_height 20
config **.inside_building false
config **.street_wide 20
config **.ue_height 1.5
config **.tolerateMaxDistViolation false
config **.correlation_distance 50
config **.antennaGainUe 0
config **.antennGainEnB 18
config **.antennGainMicro 5
config **.thermalNoise -104.5
config **.ue_noise_figure 7
config **.bs_noise_figure 5
config **.cable_loss 2
config **.dynamic_los false
config **.fixed_los false
config **.fading true
config **.fading_type "\"JAKES\""
config **.fading_paths 6
config **.delay_rms 363e-9
config **.bgCell_interference true
config **.extCell_interference true
config **.downlink_interference true
config **.uplink_interference true
config **.enable_extCell_los false
config **.useBuildingPenetrationLossHighLossModel false
config *.numBgCells 1
config *.bgCell[*].bgScheduler.isNr true
config *.bgCell[*].bgScheduler.txPower 46
config *.bgCell[*].bgScheduler.txDirection "\"OMNI\""
config *.bgCell[*].bgScheduler.txAngle 0
config *.bgCell[*].bgScheduler.numerologyIndex 0
config *.bgCell[*].bgScheduler.carrierFrequency 2GHz
config *.bgCell[*].bgScheduler.numBands 6
config *.bgCell[*].mobility.initialX 235m
config *.bgCell[*].mobility.initialY 120m
config *.bgCell[*].bgTrafficGenerator.numBgUes 50
config *.bgCell[*].bgTrafficGenerator.computeAvgInterference true
config *.bgCell[*].bgTrafficGenerator.bgUE[*].mobility.initialX normal(235m,120m)
config *.bgCell[*].bgTrafficGenerator.bgUE[*].mobility.initialY normal(235m,120m)
config *.bgCell[*].bgTrafficGenerator.bgUE[*].trafficGeneratorType "\"TrafficGeneratorCbr\""
config *.bgCell[*].bgTrafficGenerator.bgUE[*].generator.startTimeDl uniform(0s,0.05s)
config *.bgCell[*].bgTrafficGenerator.bgUE[*].generator.packetSizeDl 1000B
config *.bgCell[*].bgTrafficGenerator.bgUE[*].generator.periodDl 0.01s
config *.configurator.config "xmldoc(\"./demo.xml\")"
config **.sctp.nagleEnabled false
config **.sctp.enableHeartbeats false
config *.masterEnb.numX2Apps 5
config *.gnb*.numX2Apps 1
config **.x2App[*].server.localPort "5000 + ancestorIndex(1)"
config *.masterEnb.x2App[0].client.connectAddress "\"gnb152%x2ppp0\""
config *.masterEnb.x2App[1].client.connectAddress "\"gnb425%x2ppp0\""
config *.masterEnb.x2App[2].client.connectAddress "\"gnb508%x2ppp0\""
config *.masterEnb.x2App[3].client.connectAddress "\"gnb686%x2ppp0\""
config *.masterEnb.x2App[4].client.connectAddress "\"gnb907%x2ppp0\""
config *.gnb152.x2App[0].client.connectAddress "\"masterEnb%x2ppp0\""
config *.gnb425.x2App[0].client.connectAddress "\"masterEnb%x2ppp1\""
config *.gnb508.x2App[0].client.connectAddress "\"masterEnb%x2ppp2\""
config *.gnb686.x2App[0].client.connectAddress "\"masterEnb%x2ppp3\""
config *.gnb907.x2App[0].client.connectAddress "\"masterEnb%x2ppp4\""
config **.dynamicCellAssociation true
config *.numUe 1
config *.ue[*].masterId 1
config *.ue[*].macCellId 1
config *.ue[*].nrMasterId 2
config *.ue[*].nrMacCellId 2
config *.ue[*].mobility.typename RectangleMobility
config *.ue[*].mobility.speed 30mps
config *.ue[*].mobility.startPos 3
config *.ue[*].mobility.constraintAreaMaxX 370m
config *.ue[*].mobility.constraintAreaMaxY 200m
config *.ue[*].mobility.constraintAreaMinX 80m
config *.ue[*].mobility.constraintAreaMinY 60m
config *.ue[*].mobility.constraintAreaMinZ 0m
config *.ue[*].mobility.constraintAreaMaxZ 0m
config *.gnb*.cellularNic.phy.enableHandover true
config *.ue[*].cellularNic.nrPhy.enableHandover true
config **.handoverLatency 0.05s
config **.hysteresisFactor 10
config **.losslessHandover false
config *.ue[*].numApps 1
config *.ue[*].app[*].typename VoIPReceiver
config *.ue[*].app[*].localPort 3000+ancestorIndex(0)
config *.server.numApps 1
config *.server.app[*].typename VoIPSender
config *.server.app[*].PacketSize 40
config *.server.app[*].destAddress "\"ue[0]\""
config *.server.app[*].localPort 3088+ancestorIndex(0)
config *.server.app[*].destPort 3000+ancestorIndex(0)
config *.server.app[*].startTime uniform(0s,0.02s)
config *.server.app[*].tos 10

vector 0 Network.ue[0].cellularNic.nrPhy averageCqiDl:vector ETV
attr recordingmode vector
attr source averageCqiDl
attr title "Average Cqi reported in DL"
attr unit cqi
vector 1 Network.ue[0] positionX:vector ETV
attr recordingmode vector
attr source positionX
attr title "Current X position"
attr unit m
vector 2 Network.ue[0] positionY:vector ETV
attr recordingmode vector
attr source positionY
attr title "Current Y position"
attr unit m
vector 3 Network.ue[0] servingRSRP:vector ETV
attr recordingmode vector
attr source servingRSRP
attr title "RSRP of serving cell measured at dynamic cell association"
attr unit dBm
vector 4 Network.ue[0] servingSINR:vector ETV
attr recordingmode vector
attr source servingSINR
attr title "SINR of serving cell measured at dynamic cell association"
attr unit dBm
vector 5 Network.ue[0] servingDistance:vector ETV
attr recordingmode vector
attr source servingDistance
attr title "distance between UE and serving base station measured at dynamic cell association"
attr unit meters
vector 6 Network.ue[0] neighborTop1RSRP:vector ETV
attr recordingmode vector
attr source neighborTop1RSRP
attr title "RSRP of top1 neighboring cell measured at handover frame reception"
attr unit dBm
vector 7 Network.ue[0] neighborTop2RSRP:vector ETV
attr recordingmode vector
attr source neighborTop2RSRP
attr title "RSRP of top2 neighboring cell measured at handover frame reception"
attr unit dBm
vector 8 Network.ue[0] neighborTop1SINR:vector ETV
attr recordingmode vector
attr source neighborTop1SINR
attr title "SINR of top1 neighboring cell measured at handover frame reception"
attr unit dBm
vector 9 Network.ue[0] neighborTop2SINR:vector ETV
attr recordingmode vector
attr source neighborTop2SINR
attr title "SINR of top2 neighboring cell measured at handover frame reception"
attr unit dBm
vector 10 Network.ue[0] neighborTop1Distance:vector ETV
attr recordingmode vector
attr source neighborTop1Distance
attr title "distance to top1 neighboring cell measured at handover frame reception"
attr unit meters
vector 11 Network.ue[0] neighborTop2Distance:vector ETV
attr recordingmode vector
attr source neighborTop2Distance
attr title "distance to top2 neighboring cell measured at handover frame reception"
attr unit meters
vector 12 Network.ue[0].cellularNic.nrMac macThroughputDl:vector ETV
attr recordingmode vector
attr source macThroughputDl
attr title "Throughput at the MAC layer DL"
attr unit Bps
vector 13 Network.ue[0].cellularNic.nrRlc.um rlcThroughputDl:vector ETV
attr recordingmode vector
attr source rlcThroughputDl
attr title "Throughput at the rlc layer DL"
attr unit Bps
vector 14 Network.ue[0].app[0] voIPReceivedThroughput:vector ETV
attr recordingmode vector
attr source voIPReceivedThroughput
attr title "Throughput received at the application level"
attr unit Bps
0	987	0.018	11
0	1593	0.038	11
0	19312	0.63	8
0	19494	0.636	8
0	19954	0.65	7
0	20583	0.67	7
0	21265	0.69	7
0	21901	0.71	11
0	22530	0.73	11
0	23210	0.75	11
0	23845	0.77	11
0	24476	0.79	11
0	25159	0.81	11
0	25796	0.83	10
0	26427	0.85	10
0	27107	0.87	10
0	27744	0.89	10
0	28377	0.91	9
0	29059	0.93	9
0	29693	0.95	9
0	30324	0.97	9
0	31006	0.99	9
0	31684	1.01	7
0	31867	1.016	6
0	32321	1.03	6
0	33007	1.05	6
0	33644	1.07	6
0	34273	1.09	6
0	34958	1.11	7
0	35140	1.116	5
0	35601	1.13	5
0	36233	1.15	5
0	36915	1.17	5
0	37550	1.19	5
0	38181	1.21	5
0	38363	1.216	5
0	38869	1.23	5
0	39503	1.25	5
0	40134	1.27	5
0	40823	1.29	2
0	40844	1.291	2
0	41011	1.296	2
0	41036	1.297	2
0	41485	1.31	2
0	41504	1.311	2
0	41673	1.316	2
0	41696	1.317	2
0	42138	1.33	2
0	42157	1.331	2
0	42326	1.336	2
0	42349	1.337	2
0	42842	1.35	2
0	42863	1.351	2
0	43031	1.356	2
0	43056	1.357	2
0	43501	1.37	2
0	43520	1.371	2
0	43689	1.376	2
0	43712	1.377	2
0	43882	1.382	2
0	44148	1.39	2
0	44172	1.391	2
0	44249	1.392	2
0	44375	1.397	2
0	44450	1.398	2
0	44875	1.41	1
0	44901	1.411	1
0	44935	1.412	1
0	44960	1.413	1
0	44988	1.414	2
0	45088	1.416	2
0	45117	1.417	2
0	45146	1.418	2
0	45173	1.419	2
0	45198	1.42	2
0	45301	1.422	2
0	45356	1.424	2
0	45403	1.426	2
0	45607	1.43	2
0	45626	1.431	2
0	45795	1.436	2
0	45818	1.437	2
0	46262	1.45	2
0	46281	1.451	2
0	46450	1.456	2
0	46473	1.457	2
0	46966	1.47	2
0	46987	1.471	2
0	47154	1.476	2
0	47179	1.477	2
0	47625	1.49	2
0	47644	1.491	2
0	47813	1.496	2
0	47837	1.497	2
0	48276	1.51	4
0	48958	1.53	4
0	49594	1.55	4
0	50224	1.57	4
0	50906	1.59	4
0	51543	1.61	8
0	51725	1.616	7
0	52179	1.63	9
0	52361	1.636	7
0	52866	1.65	7
0	53505	1.67	7
0	132755	4.325	4
0	133438	4.345	4
0	134072	4.365	4
0	134702	4.385	4
0	135387	4.405	4
0	136021	4.425	4
0	136651	4.445	4
0	137335	4.465	4
0	137969	4.485	4
0	138606	4.505	4
0	138679	4.506	4
0	138868	4.512	2
0	139051	4.518	2
0	139305	4.525	2
0	139330	4.526	2
0	139494	4.531	2
0	139523	4.532	2
0	139961	4.545	2
0	139982	4.546	2
0	140150	4.551	2
0	140175	4.552	2
0	140610	4.565	2
0	140683	4.566	2
0	140798	4.571	2
0	140875	4.572	2
0	140991	4.577	2
0	141317	4.585	2
0	141343	4.586	2
0	141508	4.591	2
0	141538	4.592	2
0	141703	4.597	2
0	141982	4.605	2
0	142003	4.606	3
0	142617	4.625	2
0	142690	4.626	2
0	142882	4.632	2
0	143154	4.642	3
0	143312	4.645	3
0	143945	4.665	2
0	143966	4.666	2
0	144141	4.671	2
0	144594	4.685	2
0	144668	4.686	2
0	144859	4.692	2
0	145291	4.705	2
0	145316	4.706	2
0	145480	4.711	2
0	145509	4.712	2
0	145944	4.725	2
0	145965	4.726	2
0	146133	4.731	2
0	146586	4.745	2
0	146659	4.746	2
0	146939	4.756	5
0	146962	4.757	5
0	151962	4.92	4
0	152146	4.926	4
0	152606	4.94	4
0	153234	4.96	4
0	153916	4.98	4
0	154559	5	4
0	155224	5.02	5
0	155904	5.04	5
0	156544	5.06	5
0	157173	5.08	5
0	157856	5.1	5
0	158491	5.12	4
0	159121	5.14	4
0	159305	5.146	4
0	186199	6.046	4
0	186887	6.066	4
0	187524	6.086	4
0	188156	6.106	9
0	188837	6.126	10
0	189472	6.146	10
0	190103	6.166	10
0	190783	6.186	10
0	191420	6.206	10
0	192050	6.226	10
0	192732	6.246	10
0	193370	6.266	10
0	193999	6.286	10
0	194682	6.306	5
0	195318	6.326	5
0	195948	6.346	5
0	196630	6.366	5
0	197265	6.386	5
0	197901	6.406	3
0	197924	6.407	3
0	198094	6.412	5
0	198596	6.426	5
0	199235	6.446	5
0	199866	6.466	6
0	200053	6.472	6
0	200554	6.486	6
0	201193	6.506	6
0	201822	6.526	6
0	202502	6.546	6
0	210651	6.818	15
0	221823	7.189	9
0	222457	7.209	7
0	222638	7.215	7
0	223096	7.229	7
0	223780	7.249	7
0	224413	7.269	7
0	225046	7.289	7
0	225730	7.309	12
0	225913	7.315	11
0	226373	7.329	11
0	226555	7.335	11
0	227009	7.349	11
0	227692	7.369	11
0	228324	7.389	11
0	228956	7.409	10
0	229639	7.429	10
0	230272	7.449	10
0	230901	7.469	10
0	231585	7.489	10
0	232219	7.509	11
0	232850	7.529	10
0	233535	7.549	10
0	234168	7.569	10
0	234798	7.589	10
0	235488	7.609	2
0	235513	7.61	2
0	235676	7.615	2
0	235701	7.616	2
0	236148	7.629	2
0	236168	7.63	2
0	236336	7.635	2
0	236357	7.636	2
0	236803	7.649	2
0	236875	7.65	2
0	236991	7.655	2
0	237065	7.656	2
0	237511	7.669	2
0	237535	7.67	2
0	237698	7.675	2
0	237724	7.676	2
0	237887	7.681	2
0	237916	7.682	2
0	238180	7.689	2
0	238200	7.69	2
0	238368	7.695	2
0	238825	7.709	4
0	239516	7.729	3
0	239540	7.73	3
0	239704	7.735	3
0	240167	7.749	3
0	240188	7.75	3
0	240811	7.769	3
0	240884	7.77	3
0	241508	7.789	3
0	241532	7.79	3
0	242150	7.809	4
0	242776	7.829	3
0	242848	7.83	3
0	243466	7.849	3
0	243490	7.85	3
0	244107	7.869	3
0	244127	7.87	3
0	244746	7.889	3
0	244818	7.89	3
0	245438	7.909	2
0	245462	7.91	2
0	245627	7.915	2
0	245652	7.916	2
0	246093	7.929	2
0	246113	7.93	2
0	246280	7.935	2
0	246301	7.936	2
0	246742	7.949	2
0	246814	7.95	2
0	246931	7.955	2
0	247439	7.969	2
0	247463	7.97	2
0	247628	7.975	2
0	247653	7.976	2
0	247825	7.981	2
0	248107	7.989	2
0	248127	7.99	2
0	248296	7.995	2
0	248317	7.996	2
0	248798	8.009	4
0	248870	8.01	4
0	249055	8.016	2
0	249494	8.029	2
0	249518	8.03	2
0	249681	8.035	2
0	249706	8.036	2
0	250146	8.049	2
0	250172	8.05	2
0	250340	8.055	2
0	250361	8.056	2
0	250802	8.069	2
0	250875	8.07	2
0	250991	8.075	2
0	251064	8.076	2
0	251218	8.081	2
0	251550	8.089	2
0	251574	8.09	2
0	251738	8.095	2
0	251763	8.096	2
0	251927	8.101	2
0	251956	8.102	2
0	252216	8.109	2
0	252236	8.11	2
0	252404	8.115	2
0	252425	8.116	2
0	252618	8.122	3
0	252902	8.129	2
0	252974	8.13	2
0	253089	8.135	2
0	253162	8.136	2
0	253277	8.141	2
0	253354	8.142	2
0	253586	8.148	2
0	253618	8.149	2
0	253642	8.15	2
0	253815	8.155	2
0	253840	8.156	2
0	254004	8.161	2
0	254291	8.169	2
0	254311	8.17	2
0	254478	8.175	2
0	254499	8.176	2
0	254944	8.189	2
0	255016	8.19	2
0	255132	8.195	2
0	255205	8.196	2
0	255398	8.202	2
0	255660	8.209	2
0	255684	8.21	2
0	255847	8.215	2
0	255873	8.216	2
0	258612	8.308	5
0	292652	9.448	3
0	292682	9.449	3
0	292759	9.45	3
0	292786	9.451	3
0	292824	9.452	3
0	292847	9.453	3
0	292876	9.454	3
0	292901	9.455	3
0	292978	9.456	3
0	293009	9.457	3
0	293041	9.458	3
0	293072	9.459	3
0	293265	9.465	3
0	293434	9.468	3
0	293469	9.469	3
0	293498	9.47	3
0	293523	9.471	3
0	293556	9.472	3
0	293579	9.473	3
0	293660	9.474	3
0	293687	9.475	3
0	293716	9.476	3
0	293742	9.477	3
0	293798	9.479	1
0	294154	9.488	1
0	294185	9.489	1
0	294210	9.49	1
0	294235	9.491	1
0	294320	9.492	1
0	294345	9.493	1
0	294378	9.494	1
0	294403	9.495	1
0	294429	9.496	1
0	294456	9.497	1
0	294534	9.498	1
0	294565	9.499	1
0	294594	9.5	1
0	294618	9.501	1
0	294647	9.502	1
0	294670	9.503	1
0	294751	9.504	1
0	294778	9.505	1
0	294807	9.506	1
0	294871	9.507	1
0	294898	9.508	1
0	294927	9.509	1
0	295003	9.51	1
0	295032	9.511	1
0	295069	9.512	1
0	295096	9.513	1
0	295129	9.514	1
0	295158	9.515	1
0	295239	9.516	1
0	295268	9.517	1
0	295298	9.518	1
0	295327	9.519	1
0	295351	9.52	1
0	295374	9.521	1
0	295455	9.522	1
0	295480	9.523	1
0	295513	9.524	1
0	295538	9.525	1
0	295563	9.526	1
0	295627	9.527	1
0	295705	9.528	1
0	295736	9.529	1
0	295764	9.53	1
0	295787	9.531	1
0	295816	9.532	1
0	295839	9.533	1
0	295920	9.534	1
0	295951	9.535	1
0	295984	9.536	1
0	296015	9.537	1
0	296045	9.538	1
0	296078	9.539	1
0	296158	9.54	1
0	296183	9.541	1
0	296217	9.542	1
0	296240	9.543	1
0	296269	9.544	1
0	296294	9.545	1
0	296371	9.546	1
0	296437	9.547	1
0	296468	9.548	1
0	296496	9.549	1
0	306588	9.88	1
0	306608	9.881	1
0	306686	9.882	1
0	306709	9.883	1
0	306742	9.884	1
0	306766	9.885	1
0	307341	9.904	2
0	307367	9.905	2
0	307444	9.906	2
0	308094	9.928	2
0	308834	9.952	3
0	308854	9.953	3
0	308932	9.954	3
0	308957	9.955	3
0	308986	9.956	3
0	309012	9.957	3
0	309760	9.982	2
0	309780	9.983	2
0	309862	9.984	2
0	309891	9.985	2
0	309923	9.986	2
0	310558	10.006	5
0	310582	10.007	5
0	310657	10.008	5
0	310686	10.009	5
0	310714	10.01	5
0	310736	10.011	5
0	313465	10.102	2
0	313489	10.103	2
0	313571	10.104	2
0	313599	10.105	2
0	319579	10.306	2
0	319603	10.307	2
0	319678	10.308	2
0	319707	10.309	2
0	319735	10.31	2
0	319757	10.311	2
0	322476	10.402	2
0	322496	10.403	2
0	322574	10.404	2
0	322599	10.405	2
0	322632	10.406	2
0	322658	10.407	2
0	324479	10.468	2
0	324505	10.469	2
0	324582	10.47	2
0	324609	10.471	2
0	324645	10.472	2
0	325595	10.504	2
0	325621	10.505	2
0	325699	10.506	2
0	325730	10.507	2
0	325763	10.508	2
0	333326	10.762	2
0	333346	10.763	2
0	333424	10.764	2
0	333449	10.765	2
0	333481	10.766	2
0	334072	10.786	2
0	334096	10.787	2
0	334171	10.788	2
0	334200	10.789	2
0	334231	10.79	2
0	334997	10.816	2
0	335021	10.817	2
0	335096	10.818	2
0	335130	10.819	2
0	335162	10.82	2
0	335184	10.821	2
0	344226	11.104	3
0	344248	11.105	3
0	344322	11.106	3
0	344350	11.107	3
0	344384	11.108	3
0	344413	11.109	3
0	344441	11.11	5
0	344464	11.111	5
0	344550	11.112	5
0	344575	11.113	5
0	344608	11.114	5
0	344633	11.115	5
0	344658	11.116	5
0	344685	11.117	5
0	344763	11.118	5
0	344798	11.119	5
0	344826	11.12	5
0	344853	11.121	5
0	344882	11.122	5
0	344946	11.123	5
0	345027	11.124	5
0	345054	11.125	5
0	345083	11.126	5
0	345110	11.127	5
0	345136	11.128	5
0	345165	11.129	5
0	345241	11.13	5
0	345266	11.131	5
0	345303	11.132	5
0	345326	11.133	5
0	345359	11.134	5
0	345384	11.135	5
0	345465	11.136	5
0	345494	11.137	5
0	345524	11.138	5
0	345554	11.139	5
0	345578	11.14	5
0	345601	11.141	5
0	345683	11.142	5
0	345749	11.143	5
0	345782	11.144	5
0	345811	11.145	5
0	345836	11.146	5
0	345867	11.147	5
0	345945	11.148	5
0	345976	11.149	5
0	346004	11.15	5
0	346027	11.151	5
0	346056	11.152	5
0	346079	11.153	5
0	346160	11.154	5
0	346188	11.155	5
0	346221	11.156	5
0	346248	11.157	5
0	346278	11.158	5
0	346307	11.159	5
0	346387	11.16	5
0	346412	11.161	5
0	346445	11.162	5
0	346506	11.163	5
0	346535	11.164	5
0	346560	11.165	5
0	346637	11.166	5
0	346670	11.167	5
0	346700	11.168	5
0	346733	11.169	5
0	346757	11.17	5
0	346784	11.171	5
0	346865	11.172	5
0	346890	11.173	5
0	346923	11.174	5
0	346948	11.175	5
0	346974	11.176	5
0	347001	11.177	5
0	347079	11.178	5
0	347110	11.179	5
0	347142	11.18	5
0	347165	11.181	5
0	347198	11.182	5
0	347258	11.183	5
0	347343	11.184	5
0	347370	11.185	5
0	347399	11.186	5
0	347426	11.187	5
0	347452	11.188	5
0	347481	11.189	5
0	347557	11.19	5
0	347587	11.191	5
0	347620	11.192	5
0	347642	11.193	5
0	348081	11.206	2
0	348109	11.207	2
0	348188	11.208	2
0	348220	11.209	2
0	351529	11.314	2
0	351551	11.315	2
0	351625	11.316	2
0	351655	11.317	2
0	351737	11.32	2
0	351759	11.321	2
0	351838	11.322	2
0	351901	11.323	2
0	351983	11.326	2
0	352009	11.327	2
0	352084	11.328	2
0	352116	11.329	2
0	352203	11.332	2
0	352229	11.333	2
0	352312	11.334	2
0	352340	11.335	2
0	352421	11.338	2
0	352449	11.339	2
0	352522	11.34	2
0	352549	11.341	2
0	352670	11.344	2
0	352694	11.345	2
0	352768	11.346	2
0	352798	11.347	2
0	352880	11.35	2
0	352902	11.351	2
0	352980	11.352	2
0	353006	11.353	2
0	353096	11.356	2
0	353127	11.357	2
0	353206	11.358	2
0	353238	11.359	2
0	353317	11.362	2
0	353376	11.363	2
0	353454	11.364	2
0	353483	11.365	2
0	353564	11.368	2
0	353592	11.369	2
0	353665	11.37	2
0	353691	11.371	2
0	353775	11.374	2
0	353799	11.375	2
0	353873	11.376	2
0	353903	11.377	2
0	353994	11.38	2
0	354020	11.381	2
0	354102	11.382	2
0	354165	11.383	2
0	354248	11.386	2
0	354274	11.387	2
0	354349	11.388	2
0	354381	11.389	2
0	354460	11.392	2
0	354482	11.393	2
0	354560	11.394	2
0	354588	11.395	2
0	377127	12.106	3
0	377151	12.107	3
0	377226	12.108	3
0	377261	12.109	3
0	377744	12.124	2
0	377770	12.125	2
0	377848	12.126	2
0	377878	12.127	2
0	399254	12.808	5
0	399280	12.809	5
0	399353	12.81	5
0	399377	12.811	5
0	399410	12.812	5
0	399432	12.813	5
0	400048	12.832	1
0	404833	12.982	1
0	405037	12.988	2
0	405242	12.994	2
0	405493	13	2
0	405746	13.006	2
0	405952	13.012	2
0	406193	13.018	2
0	406404	13.024	2
0	406608	13.03	2
0	406847	13.036	2
0	407054	13.042	2
0	407262	13.048	1
0	407639	13.057	3
0	407670	13.058	3
0	407700	13.059	3
0	407727	13.06	3
0	407754	13.061	3
0	407836	13.062	3
0	407861	13.063	3
0	407894	13.064	3
0	407919	13.065	3
0	407944	13.066	3
0	407971	13.067	3
0	408049	13.068	3
0	408080	13.069	3
0	408108	13.07	3
0	408131	13.071	3
0	408160	13.072	3
0	408183	13.073	3
0	408264	13.074	3
0	408292	13.075	3
0	408358	13.076	3
0	408385	13.077	3
0	408411	13.078	3
0	408440	13.079	3
0	408521	13.08	3
0	408550	13.081	3
0	408587	13.082	3
0	408614	13.083	3
0	408647	13.084	3
0	408676	13.085	3
0	408753	13.086	3
0	408782	13.087	3
0	408812	13.088	3
0	408840	13.089	3
0	409450	13.108	1
0	409480	13.109	1
0	409556	13.11	1
0	411201	13.162	3
0	411221	13.163	3
0	411299	13.164	3
0	411324	13.165	3
0	411353	13.166	3
0	411379	13.167	3
0	412570	13.204	1
0	412592	13.205	1
0	412669	13.206	1
0	413747	13.24	3
0	413767	13.241	3
0	413845	13.242	3
0	413868	13.243	3
0	413901	13.244	3
0	413925	13.245	3
0	415291	13.288	5
0	415317	13.289	5
0	415390	13.29	5
0	415417	13.291	5
0	415454	13.292	5
0	415481	13.293	5
0	415514	13.294	3
0	415543	13.295	3
0	415658	13.296	3
0	415691	13.297	3
0	415725	13.298	3
0	415754	13.299	3
0	415780	13.3	3
0	415803	13.301	3
0	415888	13.302	3
0	415913	13.303	3
0	415946	13.304	3
0	415971	13.305	3
0	415996	13.306	6
0	416023	13.307	6
0	416101	13.308	6
0	416132	13.309	6
0	416160	13.31	6
0	416183	13.311	6
0	416213	13.312	6
0	416236	13.313	6
0	416317	13.314	6
0	416344	13.315	6
0	416410	13.316	6
0	416437	13.317	6
0	416463	13.318	6
0	416492	13.319	6
0	416568	13.32	6
0	416597	13.321	6
0	416634	13.322	6
0	416661	13.323	6
0	416694	13.324	6
0	416719	13.325	6
0	416796	13.326	6
0	416825	13.327	6
0	416855	13.328	6
0	416884	13.329	6
0	416909	13.33	6
0	416936	13.331	6
0	417017	13.332	6
0	417042	13.333	6
0	417075	13.334	6
0	417100	13.335	6
0	417163	13.336	6
0	417190	13.337	6
0	417272	13.338	6
0	417303	13.339	6
0	417331	13.34	6
0	417354	13.341	6
0	417383	13.342	6
0	417407	13.343	6
0	417488	13.344	6
0	417519	13.345	6
0	417547	13.346	6
0	417696	13.35	6
0	417718	13.351	6
0	417747	13.352	6
0	417950	13.357	6
0	417981	13.358	6
0	418006	13.359	6
0	418176	13.364	6
0	418197	13.365	6
0	418382	13.371	6
0	418610	13.377	6
0	418632	13.378	6
0	418822	13.384	6
0	419006	13.39	6
0	419231	13.396	6
0	419254	13.397	6
0	419442	13.403	6
0	419634	13.409	6
0	419816	13.415	6
0	419954	13.417	6
0	420140	13.423	6
0	420329	13.429	6
0	420510	13.435	6
0	420599	13.437	6
0	420784	13.443	6
0	420974	13.449	6
0	421155	13.455	6
0	421240	13.457	6
0	421425	13.463	6
0	421614	13.469	6
0	421795	13.475	6
0	421934	13.477	6
0	422120	13.483	6
0	422311	13.489	6
0	422493	13.495	6
0	422581	13.497	6
0	422767	13.503	6
0	422975	13.51	6
0	423200	13.516	6
0	423224	13.517	6
0	423909	13.537	4
0	423940	13.538	4
0	423965	13.539	4
0	424107	13.543	4
0	424137	13.544	4
0	424159	13.545	4
0	424309	13.549	4
0	424334	13.55	4
0	424353	13.551	4
0	424502	13.555	4
0	424565	13.556	4
0	424593	13.557	4
0	424621	13.558	4
0	424654	13.559	4
0	424729	13.56	4
0	424831	13.564	4
0	424853	13.565	4
0	424926	13.566	4
0	426575	13.618	2
0	426605	13.619	2
0	426682	13.62	2
0	426708	13.621	2
0	427941	13.66	3
0	427961	13.661	3
0	428040	13.662	3
0	428066	13.663	3
0	429299	13.702	3
0	429319	13.703	3
0	429397	13.704	3
0	429425	13.705	3
0	430652	13.744	1
0	430674	13.745	1
0	430748	13.746	1
0	430778	13.747	1
0	432012	13.786	1
0	432040	13.787	1
0	432119	13.788	1
0	432151	13.789	1
0	432230	13.792	5
0	432253	13.793	5
0	432332	13.794	5
0	432357	13.795	5
0	432423	13.796	5
0	432450	13.797	5
0	432476	13.798	5
0	432505	13.799	5
0	432582	13.8	5
0	432607	13.801	5
0	432640	13.802	5
0	432665	13.803	5
0	432694	13.804	3
0	432723	13.805	3
0	432800	13.806	3
0	432833	13.807	3
0	432867	13.808	3
0	432896	13.809	3
0	432924	13.81	3
0	432947	13.811	3
0	433033	13.812	3
0	433058	13.813	3
0	433091	13.814	3
0	433116	13.815	3
0	433178	13.816	3
0	433205	13.817	3
0	433283	13.818	3
0	433314	13.819	3
0	433342	13.82	3
0	433369	13.821	3
0	433398	13.822	3
0	433421	13.823	3
0	433502	13.824	3
0	433529	13.825	3
0	433558	13.826	3
0	433585	13.827	3
0	433611	13.828	3
0	433645	13.829	3
0	433721	13.83	3
0	433750	13.831	3
0	433787	13.832	3
0	433810	13.833	3
0	433843	13.834	3
0	433868	13.835	3
0	433986	13.836	3
0	434015	13.837	3
0	434045	13.838	3
0	434074	13.839	3
0	434098	13.84	3
0	434121	13.841	3
0	434203	13.842	3
0	434228	13.843	3
0	434261	13.844	3
0	434290	13.845	3
0	434316	13.846	3
0	434343	13.847	3
0	434421	13.848	3
0	434453	13.849	3
0	434481	13.85	3
0	434504	13.851	3
0	434533	13.852	3
0	434561	13.853	3
0	434642	13.854	3
0	434673	13.855	3
0	434744	13.856	3
0	434770	13.857	3
0	435557	13.882	3
0	435577	13.883	3
0	435655	13.884	3
0	435684	13.885	3
0	435717	13.886	3
0	435743	13.887	3
0	436349	13.906	3
0	436373	13.907	3
0	436448	13.908	3
0	436477	13.909	3
0	436505	13.91	3
0	436527	13.911	3
0	437896	13.954	1
0	439720	14.008	1
0	439746	14.009	1
0	439819	14.01	1
0	439842	14.011	1
0	439875	14.012	1
0	439897	14.013	1
0	440907	14.044	1
0	440933	14.045	1
0	441011	14.046	1
0	441041	14.047	1
0	441394	14.057	2
0	441468	14.058	2
0	441582	14.063	2
0	441660	14.064	2
0	441779	14.069	2
0	442109	14.077	2
0	442135	14.078	2
0	442297	14.083	2
0	442326	14.084	2
0	442517	14.09	2
0	442765	14.097	4
0	442792	14.098	2
0	442822	14.099	2
0	442896	14.1	2
0	442971	14.103	2
0	443019	14.105	2
0	443093	14.106	2
0	443176	14.109	2
0	443216	14.111	2
0	443365	14.115	2
0	443450	14.117	2
0	443530	14.118	2
0	443559	14.119	2
0	443727	14.124	2
0	443750	14.125	2
0	443918	14.13	2
0	443939	14.131	2
0	444143	14.136	2
0	444173	14.137	2
0	444204	14.138	2
0	444230	14.139	2
0	444401	14.144	2
0	444422	14.145	2
0	444592	14.15	2
0	444611	14.151	2
0	444817	14.156	2
0	444845	14.157	2
0	444872	14.158	2
0	444898	14.159	2
0	445069	14.164	2
0	445090	14.165	2
0	445260	14.17	2
0	445279	14.171	2
0	445485	14.176	2
0	445514	14.177	2
0	445593	14.178	2
0	445621	14.179	2
0	445790	14.184	2
0	445813	14.185	2
0	445982	14.19	2
0	446235	14.197	2
0	446261	14.198	2
0	446431	14.203	2
0	446460	14.204	2
0	446895	14.217	2
0	446917	14.218	2
0	447083	14.223	2
0	447109	14.224	2
0	447546	14.237	2
0	447620	14.238	2
0	447735	14.243	2
0	447812	14.244	2
0	448249	14.257	2
0	448275	14.258	2
0	448437	14.263	2
0	448466	14.264	2
0	448900	14.277	2
0	448922	14.278	2
0	449089	14.283	2
0	449114	14.284	2
0	449284	14.289	2
0	449304	14.29	2
0	449560	14.297	2
0	449634	14.298	2
0	449750	14.303	2
0	449827	14.304	2
0	450266	14.317	2
0	450292	14.318	2
0	450455	14.323	2
0	450484	14.324	2
0	450930	14.337	2
0	450952	14.338	2
0	451118	14.343	2
0	451143	14.344	2
0	451313	14.349	2
0	451333	14.35	2
0	451501	14.355	2
0	451564	14.356	2
0	451592	14.357	2
0	451667	14.358	2
0	451786	14.363	2
0	451863	14.364	2
0	451982	14.369	2
0	452054	14.37	2
0	452169	14.375	2
0	452284	14.376	2
0	452314	14.377	2
0	452341	14.378	2
0	452508	14.383	2
0	452537	14.384	2
0	452705	14.389	5
0	452978	14.397	3
0	453000	14.398	3
0	453168	14.403	3
0	453193	14.404	4
0	453365	14.409	4
0	453634	14.417	3
0	453708	14.418	3
0	453822	14.423	3
0	453899	14.424	3
0	454371	14.437	3
0	454397	14.438	3
0	454559	14.443	3
0	454588	14.444	3
0	455023	14.457	3
0	455045	14.458	3
0	455214	14.463	3
0	455239	14.464	3
0	455674	14.477	3
0	455748	14.478	3
0	455862	14.483	3
0	455939	14.484	3
0	456058	14.489	3
0	456382	14.497	3
0	456408	14.498	3
0	456572	14.503	3
0	456762	14.509	3
0	457035	14.517	3
0	457057	14.518	3
0	457224	14.523	3
0	457249	14.524	3
0	457692	14.537	3
0	457766	14.538	3
0	457881	14.543	4
0	457958	14.544	4
0	458391	14.557	4
0	458574	14.563	4
0	459028	14.577	4
0	459211	14.583	4
0	459660	14.597	4
0	460341	14.617	4
0	460525	14.623	4
0	460763	14.629	4
0	461036	14.637	4
0	461673	14.657	3
0	461747	14.658	3
0	462367	14.677	4
0	462999	14.697	4
0	463182	14.703	4
0	463635	14.717	6
0	463817	14.723	4
0	464324	14.737	4
0	464507	14.743	4
0	464963	14.757	4
0	465145	14.763	4
0	465602	14.777	3
0	465676	14.778	3
0	465793	14.783	3
0	466305	14.797	3
0	466332	14.798	3
0	466497	14.803	3
0	466960	14.817	3
0	466982	14.818	3
0	467149	14.823	3
0	467610	14.837	3
0	467684	14.838	3
0	468304	14.857	3
0	468330	14.858	3
0	468493	14.863	3
0	468956	14.877	3
0	468979	14.878	4
0	469146	14.883	4
0	469598	14.897	2
0	469672	14.898	2
0	469788	14.903	2
0	469866	14.904	2
0	469985	14.909	2
0	470308	14.917	2
0	470334	14.918	2
0	470496	14.923	2
0	470525	14.924	2
0	470692	14.929	2
0	470966	14.937	2
0	470988	14.938	2
0	471155	14.943	2
0	471180	14.944	2
0	471352	14.949	2
0	471622	14.957	2
0	471696	14.958	2
0	471810	14.963	2
0	471887	14.964	2
0	471985	14.968	5
0	472352	14.977	5
0	472986	14.997	5
0	473212	15.003	5
0	473665	15.017	4
0	474350	15.037	4
0	474534	15.043	4
0	474998	15.057	4
0	475180	15.063	4
0	475633	15.077	4
0	475816	15.083	4
0	476323	15.097	4
0	476957	15.117	4
0	477140	15.123	4
0	477592	15.137	4
0	477774	15.143	4
0	478282	15.157	4
0	478464	15.163	4
0	478922	15.177	4
0	479105	15.183	4
0	479295	15.189	4
0	479565	15.197	4
0	479749	15.203	4
0	480256	15.217	4
0	480438	15.223	4
0	480896	15.237	4
0	481079	15.243	4
0	481531	15.257	4
0	481714	15.263	4
0	482224	15.277	4
0	482406	15.283	4
0	482863	15.297	4
0	483047	15.303	4
0	483237	15.309	4
0	483507	15.317	4
0	483689	15.323	4
0	483879	15.329	4
0	484204	15.337	4
0	484388	15.343	4
0	484845	15.357	4
0	485028	15.363	4
0	485217	15.369	4
0	485487	15.377	4
0	485669	15.383	4
0	486181	15.397	2
0	486207	15.398	2
0	486370	15.403	2
0	486399	15.404	2
0	486840	15.417	2
0	486862	15.418	2
0	487028	15.423	2
0	487053	15.424	2
0	487493	15.437	2
0	487567	15.438	2
0	487681	15.443	2
0	487758	15.444	2
0	487949	15.45	2
0	488208	15.457	2
0	488234	15.458	2
0	488396	15.463	2
0	488425	15.464	2
0	488866	15.477	2
0	488888	15.478	2
0	489055	15.483	2
0	489080	15.484	2
0	489269	15.49	2
0	489525	15.497	1
0	489604	15.498	1
0	489636	15.499	1
0	489667	15.5	1
0	489689	15.501	1
0	489739	15.503	4
0	489820	15.504	4
0	489846	15.505	4
0	489875	15.506	4
0	489903	15.507	4
0	490287	15.517	4
0	490318	15.518	4
0	490343	15.519	4
0	490485	15.523	4
0	490515	15.524	4
0	490536	15.525	4
0	490962	15.537	4
0	490989	15.538	4
0	491014	15.539	4
0	491160	15.543	4
0	491186	15.544	4
0	491207	15.545	4
0	491382	15.55	4
0	491401	15.551	4
0	491645	15.557	4
0	491724	15.558	4
0	491751	15.559	4
0	491843	15.563	4
0	491921	15.564	4
0	491944	15.565	4
0	492370	15.577	4
0	492401	15.578	4
0	492426	15.579	4
0	492568	15.583	4
0	492598	15.584	4
0	492619	15.585	4
0	492811	15.591	4
0	493051	15.597	4
0	493078	15.598	4
0	493103	15.599	4
0	493250	15.603	4
0	493276	15.604	2
0	493297	15.605	2
0	493723	15.617	2
0	493797	15.618	2
0	493912	15.623	2
0	493989	15.624	2
0	494178	15.63	2
0	494436	15.637	2
0	494462	15.638	2
0	494625	15.643	2
0	494654	15.644	2
0	495096	15.657	2
0	495118	15.658	2
0	495285	15.663	2
0	495310	15.664	2
0	495499	15.67	2
0	495756	15.677	2
0	495830	15.678	2
0	496021	15.684	2
0	496205	15.69	2
0	496465	15.697	2
0	496491	15.698	2
0	496654	15.703	2
0	496683	15.704	2
0	497889	15.742	2
0	497913	15.743	2
0	497996	15.744	2
0	498025	15.745	2
0	498058	15.746	2
0	498084	15.747	2
0	503064	15.904	2
0	503086	15.905	2
0	503160	15.906	2
0	503187	15.907	2
0	503217	15.908	2
0	503248	15.909	2
0	503274	15.91	2
0	503297	15.911	2
0	503380	15.912	2
0	503405	15.913	2
0	503442	15.914	2
0	503473	15.915	2
0	503541	15.916	2
0	503574	15.917	2
0	503656	15.918	2
0	503691	15.919	2
0	503719	15.92	2
0	503742	15.921	2
0	503771	15.922	2
0	503794	15.923	2
0	503875	15.924	2
0	503902	15.925	2
0	503931	15.926	2
0	503959	15.927	2
0	503985	15.928	2
0	504014	15.929	2
0	504090	15.93	2
0	504115	15.931	2
0	504149	15.932	2
0	504172	15.933	2
0	504201	15.934	2
0	504226	15.935	2
0	504340	15.936	2
0	504369	15.937	2
0	504403	15.938	2
0	504437	15.939	2
0	504465	15.94	2
0	504492	15.941	2
0	504577	15.942	2
0	504607	15.943	2
0	504640	15.944	2
0	504665	15.945	2
0	504690	15.946	2
0	504717	15.947	2
0	504795	15.948	2
0	504826	15.949	2
0	504854	15.95	2
0	504877	15.951	2
0	504906	15.952	2
0	504929	15.953	2
0	505011	15.954	2
0	505038	15.955	2
0	505104	15.956	2
0	505130	15.957	2
0	515462	16.282	1
0	515486	16.283	1
0	515567	16.284	1
0	515673	16.288	3
0	515699	16.289	3
0	515775	16.29	3
0	515897	16.294	3
0	515924	16.295	3
0	516038	16.296	3
0	516148	16.3	3
0	516168	16.301	3
0	516249	16.302	3
0	516369	16.306	3
0	516397	16.307	3
0	516475	16.308	3
0	516583	16.312	3
0	516603	16.313	3
0	516684	16.314	3
0	516841	16.318	3
0	516871	16.319	3
0	516947	16.32	3
0	517054	16.324	3
0	517076	16.325	3
0	517153	16.326	3
0	517276	16.33	3
0	517300	16.331	3
0	517381	16.332	3
0	517523	16.336	3
0	517547	16.337	3
0	517625	16.338	3
0	517739	16.342	3
0	517759	16.343	3
0	517840	16.344	3
0	517954	16.348	3
0	517984	16.349	3
0	518060	16.35	3
0	518167	16.354	3
0	518190	16.355	3
0	518304	16.356	3
0	518427	16.36	3
0	518451	16.361	3
0	518532	16.362	3
0	518637	16.366	3
0	518661	16.367	3
0	518739	16.368	3
0	518862	16.372	3
0	518886	16.373	3
0	518967	16.374	3
0	519111	16.378	3
0	519137	16.379	3
0	519213	16.38	3
0	519334	16.384	3
0	519360	16.385	3
0	519437	16.386	3
0	519546	16.39	3
0	519566	16.391	3
0	519648	16.392	3
0	519798	16.396	3
0	519826	16.397	3
0	519904	16.398	3
0	520019	16.402	3
0	520039	16.403	3
0	520120	16.404	3
0	520430	16.414	4
0	520452	16.415	4
0	520566	16.416	4
0	520675	16.42	3
0	520696	16.421	3
0	520777	16.422	3
0	520886	16.426	3
0	520914	16.427	3
0	520992	16.428	3
0	521104	16.432	3
0	521124	16.433	3
0	521205	16.434	3
0	521349	16.438	3
0	521375	16.439	3
0	521452	16.44	3
0	521559	16.444	3
0	521581	16.445	3
0	521658	16.446	3
0	521771	16.45	3
0	521795	16.451	3
0	521876	16.452	3
0	522023	16.456	3
0	522047	16.457	3
0	522125	16.458	3
0	522234	16.462	3
0	522254	16.463	3
0	522335	16.464	3
0	522441	16.468	3
0	522467	16.469	3
0	522543	16.47	3
0	522655	16.474	3
0	522681	16.475	3
0	522795	16.476	3
0	522908	16.48	3
0	522928	16.481	3
0	523009	16.482	3
0	523115	16.486	3
0	523139	16.487	3
0	523217	16.488	3
0	523325	16.492	3
0	523345	16.493	3
0	523426	16.494	3
0	523575	16.498	3
0	523605	16.499	3
0	523682	16.5	3
0	530417	16.714	2
0	530659	16.72	1
0	530861	16.726	2
0	531067	16.732	2
0	531312	16.738	2
0	531519	16.744	2
0	531724	16.75	2
0	531963	16.756	2
0	532174	16.762	2
0	532377	16.768	2
0	532582	16.774	2
0	532825	16.78	2
0	533032	16.786	2
0	533238	16.792	2
0	533478	16.798	2
0	533684	16.804	2
0	541540	17.05	1
0	541809	17.057	2
0	541883	17.058	2
0	541997	17.063	2
0	542075	17.064	2
0	542517	17.077	2
0	542543	17.078	2
0	542706	17.083	2
0	542735	17.084	2
0	543175	17.097	2
0	543197	17.098	3
0	543365	17.103	3
0	543391	17.104	3
0	543830	17.117	2
0	543904	17.118	2
0	544018	17.123	2
0	544095	17.124	2
0	544214	17.129	2
0	544286	17.13	2
0	544549	17.137	2
0	544575	17.138	2
0	544738	17.143	2
0	544767	17.144	2
0	545207	17.157	3
0	545234	17.158	2
0	545259	17.159	2
0	545405	17.163	2
0	545431	17.164	2
0	545452	17.165	2
0	545627	17.17	2
0	545883	17.177	2
0	545957	17.178	2
0	546071	17.183	2
0	546149	17.184	2
0	546338	17.19	2
0	546596	17.197	2
0	546623	17.198	2
0	546794	17.203	2
0	546823	17.204	2
0	547262	17.217	2
0	547284	17.218	2
0	547451	17.223	2
0	547476	17.224	2
0	547916	17.237	2
0	547990	17.238	2
0	548104	17.243	2
0	548181	17.244	2
0	548370	17.25	2
0	548628	17.257	2
0	548654	17.258	2
0	548816	17.263	2
0	548845	17.264	2
0	549012	17.269	2
0	549293	17.277	2
0	549315	17.278	2
0	549935	17.297	2
0	550009	17.298	2
0	550124	17.303	2
0	550201	17.304	2
0	550644	17.317	2
0	550670	17.318	2
0	550832	17.323	2
0	550861	17.324	2
0	551300	17.337	2
0	551322	17.338	2
0	551488	17.343	2
0	551513	17.344	2
0	551953	17.357	2
0	552027	17.358	2
0	552141	17.363	2
0	552218	17.364	2
0	552662	17.377	2
0	552688	17.378	2
0	552850	17.383	2
0	552879	17.384	2
0	553045	17.389	2
0	553069	17.39	2
0	553233	17.395	2
0	553326	17.397	2
0	553356	17.398	10
0	553974	17.417	10
0	554157	17.423	10
0	554663	17.437	10
0	555297	17.457	10
0	555927	17.477	10
0	556109	17.483	10
0	556622	17.497	10
0	557256	17.517	10
0	557884	17.537	10
0	558067	17.543	10
0	558573	17.557	10
0	559205	17.577	10
0	559387	17.583	8
0	559841	17.597	6
0	560024	17.603	6
0	560532	17.617	6
0	560714	17.623	6
0	561172	17.637	7
0	561355	17.643	6
0	561808	17.657	6
0	562492	17.677	6
0	563125	17.697	6
0	563309	17.703	6
0	563761	17.717	6
0	564447	17.737	6
0	565082	17.757	6
0	565711	17.777	5
0	565894	17.783	5
0	566402	17.797	5
0	567037	17.817	5
0	567219	17.823	5
0	567673	17.837	5
0	568357	17.857	5
0	568539	17.863	5
0	568995	17.877	5
0	569178	17.883	7
0	569631	17.897	6
0	569814	17.903	6
0	570322	17.917	6
0	570955	17.937	6
0	571137	17.943	6
0	571590	17.957	6
0	571772	17.963	6
0	572279	17.977	6
0	572461	17.983	6
0	572919	17.997	6
0	573143	18.003	6
0	573333	18.009	4
0	573607	18.017	3
0	573681	18.018	3
0	573797	18.023	3
0	574310	18.037	3
0	574336	18.038	3
0	574499	18.043	3
0	574968	18.057	3
0	574990	18.058	3
0	575159	18.063	3
0	575616	18.077	3
0	575690	18.078	3
0	575807	18.083	3
0	575996	18.089	3
0	576325	18.097	3
0	576351	18.098	3
0	576516	18.103	3
0	576707	18.109	3
0	576980	18.117	3
0	577162	18.123	3
0	577352	18.129	3
0	577622	18.137	3
0	577804	18.143	3
0	577993	18.149	3
0	578318	18.157	3
0	578500	18.163	3
0	578957	18.177	3
0	579140	18.183	5
0	579594	18.197	4
0	579778	18.203	4
0	580287	18.217	4
0	580469	18.223	4
0	580927	18.237	4
0	581110	18.243	4
0	581564	18.257	4
0	581746	18.263	4
0	582252	18.277	4
0	582436	18.283	4
0	582895	18.297	4
0	583079	18.303	4
0	583535	18.317	4
0	583717	18.323	4
0	584223	18.337	4
0	584406	18.343	4
0	584863	18.357	4
0	585046	18.363	4
0	585500	18.377	4
0	585682	18.383	4
0	586188	18.397	4
0	586373	18.403	4
0	586830	18.417	4
0	587013	18.423	4
0	587465	18.437	5
0	588152	18.457	5
0	588787	18.477	5
0	588969	18.483	6
0	589421	18.497	4
0	590106	18.517	4
0	590288	18.523	4
0	590745	18.537	4
0	591374	18.557	4
0	591556	18.563	4
0	592063	18.577	4
0	592705	18.597	3
0	592727	18.598	3
0	593347	18.617	3
0	593421	18.618	3
0	593536	18.623	3
0	593726	18.629	3
0	594054	18.637	3
0	594080	18.638	3
0	594700	18.657	3
0	594723	18.658	3
0	595342	18.677	3
0	595416	18.678	3
0	595532	18.683	3
0	596038	18.697	4
0	596673	18.717	4
0	596855	18.723	4
0	597309	18.737	4
0	597991	18.757	4
0	598623	18.777	4
0	598806	18.783	4
0	598995	18.789	4
0	599264	18.797	4
0	599447	18.803	4
0	599956	18.817	4
0	600590	18.837	4
0	601219	18.857	4
0	601902	18.877	4
0	602537	18.897	4
0	602721	18.903	4
0	603176	18.917	4
0	603359	18.923	4
0	603866	18.937	4
0	604048	18.943	4
0	604505	18.957	4
0	604689	18.963	4
0	605141	18.977	4
0	605830	18.997	2
0	605856	18.998	2
0	606060	19.003	2
0	606089	19.004	2
0	606256	19.009	2
0	606534	19.017	2
0	606556	19.018	2
0	606722	19.023	2
0	606747	19.024	2
0	606936	19.03	2
0	607193	19.037	2
0	607267	19.038	2
0	607381	19.043	2
0	607458	19.044	2
0	607907	19.057	2
0	607933	19.058	2
0	608095	19.063	2
0	608124	19.064	2
0	608290	19.069	2
0	608314	19.07	2
0	608477	19.075	2
0	608545	19.076	2
0	608573	19.077	2
0	608597	19.078	2
0	608768	19.083	2
0	608793	19.084	2
0	608963	19.089	2
0	608983	19.09	2
0	609150	19.095	2
0	609213	19.096	2
0	609241	19.097	2
0	609316	19.098	2
0	609437	19.103	2
0	609515	19.104	2
0	609634	19.109	2
0	609706	19.11	2
0	609822	19.115	2
0	609895	19.116	2
0	638311	20.068	2
0	638336	20.069	2
0	638502	20.074	2
0	638524	20.075	2
0	638693	20.08	2
0	638712	20.081	2
0	638881	20.086	2
0	638946	20.087	2
0	639026	20.088	2
0	639054	20.089	2
0	639223	20.094	2
0	639246	20.095	2
0	639417	20.1	2
0	639438	20.101	2
0	639698	20.108	6
0	640322	20.128	6
0	640999	20.148	6
0	641631	20.168	6
0	642255	20.188	6
0	642440	20.194	6
0	642939	20.208	7
0	643126	20.214	6
0	643311	20.22	6
0	643583	20.228	6
0	643768	20.234	6
0	644214	20.248	6
0	644399	20.254	6
0	644584	20.26	6
0	644903	20.268	6
0	645088	20.274	6
0	645274	20.28	6
0	645546	20.288	6
0	645731	20.294	6
0	646177	20.308	3
0	646857	20.328	2
0	646885	20.329	2
0	647072	20.335	2
0	647255	20.341	2
0	647483	20.347	2
0	647515	20.348	2
0	647540	20.349	2
0	647711	20.354	2
0	647732	20.355	2
0	648180	20.368	2
0	648205	20.369	2
0	648373	20.374	2
0	648394	20.375	2
0	648882	20.388	2
0	648909	20.389	2
0	649073	20.394	2
0	649096	20.395	2
0	649537	20.408	2
0	649562	20.409	2
0	649728	20.414	2
0	649749	20.415	2
0	649919	20.42	2
0	650192	20.428	2
0	650217	20.429	2
0	650383	20.434	2
0	650404	20.435	2
0	650891	20.448	2
0	650918	20.449	2
0	651083	20.454	2
0	651106	20.455	2
0	651592	20.468	2
0	651617	20.469	2
0	651784	20.474	2
0	651805	20.475	2
0	652248	20.488	2
0	652273	20.489	2
0	652439	20.494	2
0	652460	20.495	2
0	652950	20.508	1
0	652982	20.509	1
0	653011	20.51	1
0	653036	20.511	1
0	653064	20.512	2
0	653166	20.514	2
0	653193	20.515	2
0	653221	20.516	2
0	653248	20.517	2
0	653275	20.518	2
0	653448	20.523	2
0	653474	20.524	2
0	653671	20.528	2
0	653696	20.529	2
0	653864	20.534	2
0	653885	20.535	2
0	654324	20.548	2
0	654349	20.549	2
0	654515	20.554	2
0	654536	20.555	2
0	654707	20.56	2
0	655031	20.568	2
0	655058	20.569	2
0	655222	20.574	2
0	655245	20.575	2
0	655739	20.588	1
0	655769	20.589	1
0	655789	20.59	2
0	655940	20.594	2
0	655963	20.595	2
0	655984	20.596	2
0	656181	20.602	2
0	656406	20.608	2
0	656436	20.609	2
0	656509	20.61	2
0	656628	20.615	2
0	656701	20.616	2
0	656817	20.621	2
0	656894	20.622	2
0	657047	20.627	2
0	657126	20.628	2
0	657158	20.629	2
0	657183	20.63	2
0	657351	20.635	2
0	657376	20.636	2
0	657539	20.641	2
0	657569	20.642	2
0	657769	20.647	2
0	657800	20.648	2
0	657830	20.649	2
0	657851	20.65	2
0	658023	20.655	2
0	658044	20.656	2
0	658212	20.661	2
0	658237	20.662	2
0	658442	20.667	2
0	658469	20.668	2
0	658499	20.669	2
0	658572	20.67	2
0	659613	20.704	1
0	659639	20.705	1
0	659717	20.706	1
0	659786	20.707	1
0	659819	20.708	1
0	661776	20.77	2
0	661797	20.771	2
0	661875	20.772	2
0	661900	20.773	2
0	661936	20.774	2
0	661988	20.776	2
0	662015	20.777	2
0	662092	20.778	2
0	662121	20.779	2
0	662153	20.78	2
0	662204	20.782	2
0	662227	20.783	2
0	662307	20.784	2
0	662332	20.785	2
0	662364	20.786	2
0	662457	20.788	2
0	662490	20.789	2
0	662569	20.79	2
0	662596	20.791	2
0	662632	20.792	2
0	662682	20.794	2
0	662707	20.795	2
0	662783	20.796	2
0	662811	20.797	2
0	662844	20.798	2
0	662900	20.8	2
0	662923	20.801	2
0	663003	20.802	2
0	663028	20.803	2
0	663066	20.804	2
0	663118	20.806	2
0	663188	20.807	2
0	663270	20.808	2
0	663305	20.809	2
0	663339	20.81	2
0	663368	20.811	2
0	663402	20.812	2
0	663429	20.813	2
0	663510	20.814	2
0	663537	20.815	2
0	663566	20.816	2
0	663595	20.817	2
0	663623	20.818	2
0	663656	20.819	2
0	663738	20.82	2
0	663765	20.821	2
0	663799	20.822	2
0	664042	20.828	2
0	664067	20.829	2
0	664235	20.834	2
0	664421	20.84	2
0	664695	20.848	2
0	664721	20.849	2
0	664909	20.855	2
0	665392	20.868	2
0	665419	20.869	2
0	665585	20.874	2
0	665608	20.875	2
0	665796	20.881	2
0	666056	20.888	2
0	666081	20.889	2
0	666248	20.894	2
0	666269	20.895	2
0	666448	20.9	2
0	670344	21.026	2
0	670367	21.027	2
0	670537	21.032	2
0	670556	21.033	2
0	670727	21.038	2
0	671003	21.046	2
0	671026	21.047	2
0	671704	21.066	4
0	672342	21.086	4
0	672972	21.106	5
0	673653	21.126	3
0	673678	21.127	3
0	674295	21.146	3
0	674318	21.147	3
0	674930	21.166	3
0	674953	21.167	3
0	675124	21.172	3
0	675625	21.186	3
0	675651	21.187	3
0	676277	21.206	3
0	676301	21.207	3
0	676323	21.208	4
0	676504	21.212	4
0	676953	21.226	3
0	677139	21.232	3
0	677640	21.246	3
0	678281	21.266	3
0	678910	21.286	3
0	679598	21.306	3
0	679623	21.307	3
0	680238	21.326	2
0	680261	21.327	2
0	680431	21.332	2
0	680879	21.346	2
0	680902	21.347	2
0	681072	21.352	2
0	681573	21.366	2
0	681599	21.367	2
0	682220	21.386	2
0	682243	21.387	2
0	682854	21.406	4
0	682877	21.407	4
0	683567	21.426	5
0	684201	21.446	5
0	684831	21.466	5
0	685513	21.486	5
0	686148	21.506	5
0	686337	21.512	5
0	686787	21.526	6
0	687469	21.546	6
0	688106	21.566	6
0	688737	21.586	6
0	689419	21.606	7
0	690055	21.626	6
0	690683	21.646	6
0	691364	21.666	6
0	692000	21.686	6
0	692634	21.706	9
0	692820	21.712	9
0	693321	21.726	9
0	693508	21.732	9
0	693691	21.738	9
0	693970	21.746	9
0	694601	21.766	9
0	694788	21.772	9
0	695290	21.786	9
0	695927	21.806	9
0	696113	21.812	10
0	696563	21.826	10
0	697244	21.846	10
0	697431	21.852	10
0	697887	21.866	11
0	698073	21.872	10
0	698523	21.886	10
0	699208	21.906	11
0	699844	21.926	11
0	700473	21.946	11
0	701154	21.966	13
0	701341	21.972	13
0	701797	21.986	13
0	702467	22.006	14
0	703147	22.026	13
0	703782	22.046	13
0	704419	22.066	15
0	704606	22.072	14
0	705109	22.086	14
0	705745	22.106	14
0	706374	22.126	14
0	707056	22.146	14
0	707693	22.166	14
0	707879	22.172	14
0	708327	22.186	14
0	709009	22.206	15
0	709644	22.226	14
0	710274	22.246	14
0	710956	22.266	14
0	711593	22.286	14
0	712223	22.306	14
0	712409	22.312	14
0	712910	22.326	14
0	713547	22.346	14
0	714177	22.366	14
0	714860	22.386	14
0	715498	22.406	14
0	716128	22.426	14
0	716812	22.446	14
0	717447	22.466	14
0	718076	22.486	14
0	718758	22.506	13
0	719395	22.526	14
0	719582	22.532	14
0	720030	22.546	13
0	720711	22.566	13
0	721345	22.586	13
0	721977	22.606	11
0	722163	22.612	10
0	722667	22.626	10
0	723303	22.646	10
0	723932	22.666	10
0	724612	22.686	10
0	725249	22.706	10
0	725435	22.712	11
0	725886	22.726	9
0	726568	22.746	9
0	727204	22.766	9
0	727834	22.786	6
0	728518	22.806	6
0	728704	22.812	5
0	729158	22.826	5
0	729791	22.846	5
0	729978	22.852	5
0	730480	22.866	5
0	731116	22.886	5
0	731747	22.906	6
0	732429	22.926	5
0	733065	22.946	5
0	733693	22.966	7
0	734374	22.986	6
0	735049	23.006	6
0	735679	23.026	6
0	736359	23.046	6
0	737002	23.066	6
0	737631	23.086	5
0	738314	23.106	7
0	738952	23.126	5
0	739139	23.132	5
0	739587	23.146	5
0	740269	23.166	5
0	740906	23.186	5
0	741537	23.206	5
0	742223	23.226	3
0	742248	23.227	3
0	742872	23.246	3
0	742895	23.247	3
0	743513	23.266	3
0	743536	23.267	3
0	744206	23.286	3
0	744231	23.287	3
0	744854	23.306	3
0	744877	23.307	3
0	745492	23.326	2
0	745515	23.327	2
0	746181	23.346	2
0	746207	23.347	2
0	746827	23.366	2
0	746851	23.367	2
0	746873	23.368	3
0	747061	23.373	3
0	747500	23.386	2
0	747523	23.387	2
0	748190	23.406	3
0	748826	23.426	3
0	748849	23.427	3
0	749462	23.446	2
0	749485	23.447	2
0	749655	23.452	2
0	750156	23.466	2
0	750181	23.467	2
0	750800	23.486	2
0	750823	23.487	2
0	750993	23.492	2
0	751442	23.506	2
0	751465	23.507	2
0	751635	23.512	2
0	751654	23.513	2
0	752144	23.526	2
0	752169	23.527	2
0	752337	23.532	2
0	752358	23.533	2
0	752800	23.546	2
0	752823	23.547	2
0	752994	23.552	2
0	753013	23.553	2
0	753184	23.558	2
0	753456	23.566	2
0	753479	23.567	2
0	753657	23.572	2
0	753844	23.578	5
0	754163	23.586	4
0	754796	23.606	4
0	755421	23.626	4
0	756099	23.646	4
0	756286	23.652	4
0	756740	23.666	4
0	757419	23.686	4
0	758103	23.706	4
0	758739	23.726	4
0	759369	23.746	4
0	760055	23.766	2
0	760080	23.767	2
0	760248	23.772	2
0	760270	23.773	2
0	760715	23.786	2
0	760738	23.787	2
0	760907	23.792	2
0	760926	23.793	2
0	761368	23.806	3
0	761391	23.807	3
0	761577	23.813	2
0	762063	23.826	2
0	762088	23.827	2
0	762276	23.833	2
0	762713	23.846	2
0	762736	23.847	2
0	762906	23.852	2
0	762925	23.853	2
0	763361	23.866	2
0	763385	23.867	2
0	763555	23.872	2
0	763574	23.873	2
0	764062	23.886	2
0	764087	23.887	2
0	764254	23.892	2
0	764275	23.893	2
0	764719	23.906	2
0	764743	23.907	2
0	764765	23.908	5
0	764918	23.912	5
0	764937	23.913	5
0	765132	23.919	2
0	766586	23.968	5
0	769130	24.048	3
0	769157	24.049	3
0	769328	24.054	3
0	769514	24.06	3
0	769796	24.068	3
0	769821	24.069	3
0	769990	24.074	4
0	770445	24.088	3
0	770471	24.089	3
0	771140	24.108	3
0	771167	24.109	3
0	771782	24.128	4
0	772410	24.148	3
0	772435	24.149	3
0	773098	24.168	3
0	773125	24.169	3
0	773740	24.188	2
0	773765	24.189	2
0	773932	24.194	2
0	773953	24.195	2
0	774124	24.2	2
0	774143	24.201	2
0	774313	24.206	2
0	774403	24.208	2
0	774432	24.209	2
0	774600	24.214	2
0	774621	24.215	2
0	774808	24.221	2
0	775115	24.228	2
0	775142	24.229	2
0	775306	24.234	2
0	775329	24.235	2
0	775772	24.248	2
0	775797	24.249	2
0	775964	24.254	2
0	775985	24.255	2
0	776420	24.268	2
0	776446	24.269	2
0	776613	24.274	2
0	776634	24.275	2
0	776805	24.28	2
0	777128	24.288	2
0	777155	24.289	2
0	777319	24.294	2
0	777342	24.295	2
0	777790	24.308	1
0	777820	24.309	1
0	777840	24.31	2
0	777991	24.314	2
0	778013	24.315	2
0	778035	24.316	2
0	778191	24.32	2
0	778464	24.328	1
0	778495	24.329	1
0	778572	24.33	1
0	778599	24.331	1
0	778631	24.332	1
0	778681	24.334	2
0	778706	24.335	2
0	778782	24.336	2
0	778811	24.337	2
0	778842	24.338	2
0	778993	24.342	2
0	779225	24.348	2
0	779252	24.349	2
0	779416	24.354	2
0	779439	24.355	2
0	779879	24.368	2
0	779904	24.369	2
0	780109	24.376	2
0	780132	24.377	2
0	780530	24.388	2
0	780555	24.389	2
0	780721	24.394	2
0	780742	24.395	2
0	781284	24.408	2
0	781311	24.409	2
0	781475	24.414	2
0	781498	24.415	2
0	781686	24.421	2
0	781949	24.428	2
0	781974	24.429	2
0	782140	24.434	2
0	782161	24.435	2
0	782331	24.44	2
0	782608	24.448	2
0	782633	24.449	2
0	782801	24.454	2
0	782822	24.455	2
0	783315	24.468	2
0	783342	24.469	2
0	783506	24.474	2
0	783529	24.475	2
0	783974	24.488	2
0	783999	24.489	2
0	784165	24.494	2
0	784187	24.495	2
0	784629	24.508	2
0	784654	24.509	2
0	784998	24.52	2
0	785017	24.521	2
0	785327	24.528	1
0	785359	24.529	1
0	785388	24.53	1
0	785413	24.531	1
0	785445	24.532	1
0	785547	24.534	1
0	785574	24.535	1
0	785603	24.536	1
0	785628	24.537	1
0	785653	24.538	1
0	785756	24.54	1
0	785781	24.541	1
0	785813	24.542	1
0	785835	24.543	1
0	785863	24.544	1
0	785963	24.546	1
0	786029	24.547	1
0	786058	24.548	1
0	786086	24.549	1
0	786113	24.55	1
0	786223	24.552	1
0	786253	24.553	1
0	786289	24.554	1
0	786316	24.555	1
0	786340	24.556	1
0	786443	24.558	1
0	786475	24.559	1
0	786503	24.56	1
0	786524	24.561	1
0	786552	24.562	1
0	786654	24.564	1
0	786681	24.565	1
0	786709	24.566	1
0	786771	24.567	1
0	786800	24.568	1
0	786903	24.57	1
0	786928	24.571	1
0	786960	24.572	1
0	786981	24.573	1
0	787014	24.574	1
0	787122	24.576	1
0	787155	24.577	1
0	787188	24.578	1
0	787215	24.579	1
0	787338	24.582	1
0	787362	24.583	1
0	787392	24.584	1
0	787414	24.585	1
0	787576	24.588	1
0	787606	24.589	1
0	787631	24.59	1
0	787656	24.591	1
0	787688	24.592	1
0	787790	24.594	1
0	787817	24.595	1
0	787846	24.596	1
0	787871	24.597	1
0	787900	24.598	1
0	788012	24.6	1
0	788041	24.601	1
0	788072	24.602	1
0	788120	24.604	1
0	788220	24.606	1
0	788284	24.607	1
0	788317	24.608	1
0	788344	24.609	1
0	788371	24.61	1
0	788473	24.612	1
0	788498	24.613	1
0	788530	24.614	1
0	788557	24.615	1
0	788585	24.616	1
0	788688	24.618	1
0	788719	24.619	1
0	788746	24.62	1
0	788767	24.621	1
0	788799	24.622	1
0	788904	24.624	1
0	789016	24.627	1
0	789045	24.628	1
0	789071	24.629	1
0	789149	24.63	1
0	789177	24.631	1
0	789235	24.633	1
0	789264	24.634	1
0	789289	24.635	1
0	789364	24.636	1
0	789396	24.637	1
0	789457	24.639	1
0	789481	24.64	1
0	789503	24.641	1
0	789582	24.642	1
0	789606	24.643	1
0	789662	24.645	1
0	789687	24.646	1
0	789754	24.647	1
0	789830	24.648	1
0	789864	24.649	1
0	789913	24.651	1
0	789947	24.652	1
0	789970	24.653	1
0	790053	24.654	1
0	790084	24.655	1
0	790142	24.657	1
0	790168	24.658	1
0	790196	24.659	1
0	790270	24.66	1
0	790296	24.661	1
0	790354	24.663	1
0	790383	24.664	2
0	790406	24.665	2
0	790553	24.667	2
0	790589	24.668	2
0	790616	24.669	2
0	790787	24.674	2
0	790808	24.675	2
0	791244	24.688	2
0	791269	24.689	2
0	791435	24.694	2
0	791456	24.695	2
0	791947	24.708	1
0	791979	24.709	1
0	792008	24.71	1
0	792033	24.711	1
0	792061	24.712	2
0	792164	24.714	2
0	792191	24.715	2
0	792219	24.716	2
0	792246	24.717	2
0	792273	24.718	2
0	792655	24.728	2
0	792680	24.729	2
0	792847	24.734	2
0	792868	24.735	2
0	793038	24.74	2
0	793057	24.741	2
0	793226	24.746	2
0	793291	24.747	2
0	793319	24.748	4
0	793350	24.749	4
0	793425	24.75	4
0	793529	24.754	4
0	793551	24.755	4
0	793624	24.756	4
0	793746	24.761	4
0	794052	24.768	4
0	794084	24.769	4
0	794108	24.77	4
0	794255	24.774	4
0	794279	24.775	4
0	794304	24.776	4
0	794727	24.788	1
0	794757	24.789	1
0	794783	24.79	1
0	794808	24.791	1
0	794893	24.792	1
0	794949	24.794	1
0	794974	24.795	1
0	794998	24.796	1
0	795023	24.797	1
0	795100	24.798	1
0	795158	24.8	1
0	795181	24.801	1
0	795209	24.802	1
0	795230	24.803	1
0	795311	24.804	1
0	795365	24.806	1
0	795429	24.807	1
0	795454	24.808	1
0	795481	24.809	1
0	795560	24.81	1
0	795624	24.812	1
0	795653	24.813	1
0	795686	24.814	1
0	795714	24.815	1
0	795790	24.816	1
0	795848	24.818	1
0	795877	24.819	1
0	795900	24.82	1
0	795921	24.821	1
0	796001	24.822	1
0	796057	24.824	1
0	796082	24.825	1
0	796106	24.826	1
0	796168	24.827	1
0	796249	24.828	1
0	796306	24.83	1
0	796329	24.831	1
0	796357	24.832	1
0	796379	24.833	1
0	796463	24.834	1
0	796525	24.836	1
0	796556	24.837	1
0	796585	24.838	1
0	796611	24.839	1
0	796741	24.842	1
0	796763	24.843	1
0	796789	24.844	1
0	796811	24.845	1
0	796980	24.848	1
0	797009	24.849	1
0	797030	24.85	1
0	797055	24.851	1
0	797140	24.852	1
0	797196	24.854	1
0	797221	24.855	1
0	797245	24.856	1
0	797270	24.857	1
0	797351	24.858	1
0	797417	24.86	1
0	797444	24.861	1
0	797471	24.862	1
0	797570	24.864	1
0	797623	24.866	1
0	797685	24.867	1
0	797714	24.868	1
0	797742	24.869	1
0	797822	24.87	1
0	797878	24.872	1
0	797901	24.873	1
0	797929	24.874	1
0	797956	24.875	1
0	798037	24.876	1
0	798094	24.878	1
0	798137	24.879	1
0	798160	24.88	3
0	798181	24.881	3
0	798265	24.882	3
0	798329	24.884	3
0	798520	24.888	1
0	798548	24.889	1
0	798577	24.89	1
0	798602	24.891	1
0	798634	24.892	1
0	798736	24.894	1
0	798763	24.895	1
0	798792	24.896	1
0	798817	24.897	1
0	798846	24.898	1
0	798950	24.9	1
0	798975	24.901	1
0	799007	24.902	1
0	799028	24.903	1
0	799056	24.904	1
0	799156	24.906	1
0	799226	24.907	1
0	799255	24.908	1
0	799282	24.909	1
0	799309	24.91	1
0	799419	24.912	1
0	799444	24.913	1
0	799480	24.914	1
0	799507	24.915	1
0	799531	24.916	1
0	799634	24.918	1
0	799665	24.919	1
0	799692	24.92	1
0	799713	24.921	1
0	799741	24.922	1
0	799843	24.924	1
0	799870	24.925	1
0	799898	24.926	1
0	799960	24.927	1
0	799990	24.928	1
0	800093	24.93	1
0	800122	24.931	1
0	800154	24.932	1
0	800175	24.933	1
0	800207	24.934	1
0	800315	24.936	1
0	800344	24.937	1
0	800377	24.938	1
0	800403	24.939	1
0	800527	24.942	1
0	800551	24.943	1
0	800581	24.944	1
0	800603	24.945	1
0	800766	24.948	1
0	800796	24.949	1
0	800821	24.95	1
0	800846	24.951	1
0	800878	24.952	1
0	800980	24.954	1
0	801011	24.955	1
0	801040	24.956	1
0	801066	24.957	1
0	801095	24.958	1
0	801206	24.96	1
0	801231	24.961	1
0	801262	24.962	1
0	801309	24.964	1
0	801409	24.966	1
0	801473	24.967	1
0	801506	24.968	1
0	801533	24.969	1
0	801560	24.97	1
0	801662	24.972	1
0	801687	24.973	1
0	801719	24.974	1
0	801746	24.975	1
0	801774	24.976	1
0	801877	24.978	1
0	801912	24.979	1
0	801940	24.98	1
0	801961	24.981	1
0	801993	24.982	1
0	802149	24.986	1
0	802210	24.987	1
0	802237	24.988	1
0	802268	24.989	1
0	802348	24.99	1
0	802408	24.992	1
0	802431	24.993	1
0	802459	24.994	1
0	802482	24.995	1
0	802562	24.996	1
0	802619	24.998	1
0	802652	24.999	1
0	802681	25	1
0	802737	25.001	1
0	802817	25.002	1
0	802895	25.005	1
0	802919	25.006	3
0	802980	25.007	3
0	803060	25.008	3
0	803094	25.009	3
0	803143	25.011	3
0	803176	25.012	3
0	803202	25.013	3
0	803281	25.014	3
0	803311	25.015	3
0	803369	25.017	3
0	803395	25.018	3
0	803423	25.019	3
0	803497	25.02	3
0	803521	25.021	3
0	803575	25.023	3
0	803626	25.025	3
0	803701	25.026	3
0	803770	25.027	3
0	803798	25.028	3
0	803830	25.029	3
0	803875	25.031	3
0	803960	25.032	3
0	803984	25.033	3
0	804015	25.034	3
0	804043	25.035	3
0	804101	25.037	3
0	804179	25.038	3
0	804210	25.039	3
0	804235	25.04	3
0	804285	25.042	5
0	804308	25.043	5
0	804388	25.044	5
0	804413	25.045	5
0	804442	25.046	5
0	804506	25.047	5
0	804532	25.048	5
0	804561	25.049	5
0	804643	25.05	5
0	804668	25.051	5
0	804701	25.052	5
0	804725	25.053	5
0	804754	25.054	5
0	804783	25.055	5
0	804859	25.056	5
0	804916	25.058	5
0	804944	25.059	5
0	805065	25.062	5
0	805292	25.068	5
0	805319	25.069	5
0	805483	25.074	5
0	805506	25.075	5
0	805691	25.081	5
0	805919	25.087	5
0	805945	25.088	5
0	806135	25.094	5
0	806320	25.1	5
0	806592	25.108	2
0	806617	25.109	2
0	806783	25.114	5
0	806804	25.115	5
0	806973	25.12	5
0	806992	25.121	5
0	807161	25.126	5
0	807227	25.127	5
0	807301	25.128	5
0	807492	25.134	5
0	807676	25.14	5
0	807858	25.146	5
0	827399	25.798	2
0	827429	25.799	2
0	827507	25.8	2
0	827534	25.801	2
0	827572	25.802	2
0	827599	25.803	2
0	827632	25.804	2
0	827660	25.805	2
0	827846	25.81	2
0	827869	25.811	2
0	828051	25.816	2
0	828079	25.817	2
0	828262	25.822	2
0	828285	25.823	2
0	828475	25.828	2
0	828504	25.829	2
0	828682	25.834	2
0	828708	25.835	2
0	828890	25.84	2
0	828913	25.841	2
0	829094	25.846	2
0	829121	25.847	2
0	829310	25.852	2
0	829333	25.853	2
0	829516	25.858	2
0	829545	25.859	2
0	829723	25.864	2
0	829748	25.865	2
0	829929	25.87	2
0	829952	25.871	2
0	830141	25.876	2
0	830168	25.877	2
0	830350	25.882	2
0	830373	25.883	2
0	830555	25.888	2
0	830585	25.889	2
0	830770	25.894	2
0	830795	25.895	2
0	830972	25.9	2
0	832229	25.942	3
0	832249	25.943	3
0	832328	25.944	3
0	832353	25.945	3
0	832383	25.946	3
0	832409	25.947	3
0	834113	26.002	2
0	834133	26.003	2
0	834211	26.004	2
0	834238	26.005	2
0	834269	26.006	2
0	834297	26.007	2
0	865121	27.037	5
0	865761	27.057	5
0	866392	27.077	6
0	867078	27.097	6
0	867714	27.117	6
0	868343	27.137	7
0	869027	27.157	7
0	869662	27.177	7
0	870291	27.197	7
0	870475	27.203	7
0	870987	27.217	7
0	871622	27.237	7
0	872252	27.257	8
0	872936	27.277	8
0	873569	27.297	8
0	874202	27.317	6
0	874386	27.323	6
0	874895	27.337	6
0	875530	27.357	6
0	876163	27.377	7
0	876345	27.383	7
0	876852	27.397	7
0	877485	27.417	7
0	878117	27.437	8
0	878801	27.457	8
0	879435	27.477	8
0	880064	27.497	8
0	880747	27.517	12
0	881383	27.537	12
0	882015	27.557	12
0	882700	27.577	12
0	883332	27.597	12
0	883964	27.617	12
0	884647	27.637	13
0	885281	27.657	13
0	885910	27.677	13
0	886595	27.697	13
0	887229	27.717	13
0	887859	27.737	13
0	888542	27.757	13
0	889178	27.777	14
0	889806	27.797	14
0	890489	27.817	15
0	891125	27.837	15
0	891755	27.857	15
0	892437	27.877	15
0	893071	27.897	15
0	893703	27.917	15
0	894389	27.937	15
0	895021	27.957	15
0	895649	27.977	15
0	896333	27.997	15
0	897010	28.017	15
0	897638	28.037	15
0	898326	28.057	15
0	898958	28.077	15
0	899589	28.097	15
0	900275	28.117	14
0	900909	28.137	14
0	901539	28.157	14
0	902222	28.177	14
0	902859	28.197	14
0	903490	28.217	12
0	904172	28.237	12
0	904805	28.257	11
0	905436	28.277	12
0	906119	28.297	12
0	906753	28.317	15
0	907381	28.337	15
0	908065	28.357	15
0	908700	28.377	15
0	909329	28.397	14
0	910012	28.417	14
0	910646	28.437	14
0	911276	28.457	14
0	911959	28.477	14
0	912591	28.497	14
1	987	0.018	80
1	1593	0.038	80
1	19312	0.63	80
1	19494	0.636	80
1	19954	0.65	80
1	20583	0.67	80
1	21265	0.69	80
1	21901	0.71	80
1	22530	0.73	80
1	23210	0.75	80
1	23845	0.77	80
1	24476	0.79	80
1	25159	0.81	80
1	25796	0.83	80
1	26427	0.85	80
1	27107	0.87	80
1	27744	0.89	80
1	28377	0.91	80
1	29059	0.93	80
1	29693	0.95	80
1	30324	0.97	80
1	31006	0.99	80
1	31684	1.01	80
1	31867	1.016	80
1	32321	1.03	80
1	33007	1.05	80
1	33644	1.07	80
1	34273	1.09	80
1	34958	1.11	80
1	35140	1.116	80
1	35601	1.13	80
1	36233	1.15	80
1	36915	1.17	80
1	37550	1.19	80
1	38181	1.21	80
1	38363	1.216	80
1	38869	1.23	80
1	39503	1.25	80
1	40134	1.27	80
1	40823	1.29	80
1	40844	1.291	80
1	41011	1.296	80
1	41036	1.297	80
1	41485	1.31	80
1	41504	1.311	80
1	41673	1.316	80
1	41696	1.317	80
1	42138	1.33	80
1	42157	1.331	80
1	42326	1.336	80
1	42349	1.337	80
1	42842	1.35	80
1	42863	1.351	80
1	43031	1.356	80
1	43056	1.357	80
1	43501	1.37	80
1	43520	1.371	80
1	43689	1.376	80
1	43712	1.377	80
1	43882	1.382	80
1	44148	1.39	80
1	44172	1.391	80
1	44249	1.392	80
1	44375	1.397	80
1	44450	1.398	80
1	44875	1.41	80
1	44901	1.411	80
1	44935	1.412	80
1	44960	1.413	80
1	44988	1.414	80
1	45088	1.416	80
1	45117	1.417	80
1	45146	1.418	80
1	45173	1.419	80
1	45198	1.42	80
1	45301	1.422	80
1	45356	1.424	80
1	45403	1.426	80
1	45607	1.43	80
1	45626	1.431	80
1	45795	1.436	80
1	45818	1.437	80
1	46262	1.45	80
1	46281	1.451	80
1	46450	1.456	80
1	46473	1.457	80
1	46966	1.47	80
1	46987	1.471	80
1	47154	1.476	80
1	47179	1.477	80
1	47625	1.49	80
1	47644	1.491	80
1	47813	1.496	80
1	47837	1.497	80
1	48276	1.51	80
1	48958	1.53	80
1	49594	1.55	80
1	50224	1.57	80
1	50906	1.59	80
1	51543	1.61	80
1	51725	1.616	80
1	52179	1.63	80
1	52361	1.636	80
1	52866	1.65	80
1	53505	1.67	80
1	132755	4.325	80
1	133438	4.345	80
1	134072	4.365	80
1	134702	4.385	80
1	135387	4.405	80
1	136021	4.425	80
1	136651	4.445	80
1	137335	4.465	80
1	137969	4.485	80
1	138606	4.505	80
1	138679	4.506	80
1	138868	4.512	80
1	139051	4.518	80
1	139305	4.525	80
1	139330	4.526	80
1	139494	4.531	80
1	139523	4.532	80
1	139961	4.545	80
1	139982	4.546	80
1	140150	4.551	80
1	140175	4.552	80
1	140610	4.565	80
1	140683	4.566	80
1	140798	4.571	80
1	140875	4.572	80
1	140991	4.577	80
1	141317	4.585	80
1	141343	4.586	80
1	141508	4.591	80
1	141538	4.592	80
1	141703	4.597	80
1	141982	4.605	80
1	142003	4.606	80
1	142617	4.625	80
1	142690	4.626	80
1	142882	4.632	80
1	143154	4.642	80
1	143312	4.645	80
1	143945	4.665	80
1	143966	4.666	80
1	144141	4.671	80
1	144594	4.685	80
1	144668	4.686	80
1	144859	4.692	80
1	145291	4.705	81
1	145316	4.706	81
1	145480	4.711	81
1	145509	4.712	81
1	145944	4.725	81
1	145965	4.726	81
1	146133	4.731	81
1	146586	4.745	81
1	146659	4.746	81
1	146939	4.756	82.44
1	146962	4.757	82.44
1	151962	4.92	87.6
1	152146	4.926	87.6
1	152606	4.94	87.6
1	153234	4.96	87.6
1	153916	4.98	87.6
1	154559	5	90
1	155224	5.02	90
1	155904	5.04	90
1	156544	5.06	90
1	157173	5.08	90
1	157856	5.1	93
1	158491	5.12	93
1	159121	5.14	93
1	159305	5.146	93
1	186199	6.046	120
1	186887	6.066	120
1	187524	6.086	120
1	188156	6.106	123
1	188837	6.126	123
1	189472	6.146	123
1	190103	6.166	124.94110963791
1	190783	6.186	124.94110963791
1	191420	6.206	126
1	192050	6.226	126
1	192732	6.246	126
1	193370	6.266	126
1	193999	6.286	126
1	194682	6.306	129.12
1	195318	6.326	129.12
1	195948	6.346	129.12
1	196630	6.366	129.12
1	197265	6.386	129.12
1	197901	6.406	132
1	197924	6.407	132
1	198094	6.412	132
1	198596	6.426	132
1	199235	6.446	132
1	199866	6.466	133.53
1	200053	6.472	133.53
1	200554	6.486	133.53
1	201193	6.506	135
1	201822	6.526	135
1	202502	6.546	135
1	210651	6.818	144
1	221823	7.189	155.46
1	222457	7.209	156
1	222638	7.215	156
1	223096	7.229	156
1	223780	7.249	156
1	224413	7.269	156
1	225046	7.289	156
1	225730	7.309	159
1	225913	7.315	159
1	226373	7.329	159.6
1	226555	7.335	159.6
1	227009	7.349	159.6
1	227692	7.369	159.6
1	228324	7.389	159.6
1	228956	7.409	162
1	229639	7.429	162
1	230272	7.449	162
1	230901	7.469	163.56
1	231585	7.489	163.56
1	232219	7.509	165
1	232850	7.529	165
1	233535	7.549	165
1	234168	7.569	165
1	234798	7.589	165
1	235488	7.609	168
1	235513	7.61	168
1	235676	7.615	168
1	235701	7.616	168
1	236148	7.629	168
1	236168	7.63	168
1	236336	7.635	168
1	236357	7.636	168
1	236803	7.649	168
1	236875	7.65	168
1	236991	7.655	168
1	237065	7.656	168
1	237511	7.669	168
1	237535	7.67	168
1	237698	7.675	168
1	237724	7.676	168
1	237887	7.681	168
1	237916	7.682	168
1	238180	7.689	168
1	238200	7.69	168
1	238368	7.695	168
1	238825	7.709	171
1	239516	7.729	171.3
1	239540	7.73	171.3
1	239704	7.735	171.3
1	240167	7.749	171.3
1	240188	7.75	171.3
1	240811	7.769	171.3
1	240884	7.77	171.3
1	241508	7.789	171.3
1	241532	7.79	171.3
1	242150	7.809	174
1	242776	7.829	174
1	242848	7.83	174
1	243466	7.849	175.29
1	243490	7.85	175.29
1	244107	7.869	175.29
1	244127	7.87	175.29
1	244746	7.889	175.29
1	244818	7.89	175.29
1	245438	7.909	177
1	245462	7.91	177
1	245627	7.915	177
1	245652	7.916	177
1	246093	7.929	177
1	246113	7.93	177
1	246280	7.935	177
1	246301	7.936	177
1	246742	7.949	177
1	246814	7.95	177
1	246931	7.955	177
1	247439	7.969	179.01
1	247463	7.97	179.01
1	247628	7.975	179.01
1	247653	7.976	179.01
1	247825	7.981	179.01
1	248107	7.989	179.01
1	248127	7.99	179.01
1	248296	7.995	179.01
1	248317	7.996	179.01
1	248798	8.009	180
1	248870	8.01	180
1	249055	8.016	180
1	249494	8.029	180
1	249518	8.03	180
1	249681	8.035	180
1	249706	8.036	180
1	250146	8.049	180
1	250172	8.05	180
1	250340	8.055	180
1	250361	8.056	180
1	250802	8.069	180
1	250875	8.07	180
1	250991	8.075	180
1	251064	8.076	180
1	251218	8.081	180
1	251550	8.089	180
1	251574	8.09	180
1	251738	8.095	180
1	251763	8.096	180
1	251927	8.101	183
1	251956	8.102	183
1	252216	8.109	183
1	252236	8.11	183
1	252404	8.115	183
1	252425	8.116	183
1	252618	8.122	183.51
1	252902	8.129	183.51
1	252974	8.13	183.51
1	253089	8.135	183.51
1	253162	8.136	183.51
1	253277	8.141	183.51
1	253354	8.142	183.51
1	253586	8.148	183.51
1	253618	8.149	183.51
1	253642	8.15	183.51
1	253815	8.155	183.51
1	253840	8.156	183.51
1	254004	8.161	183.51
1	254291	8.169	183.51
1	254311	8.17	183.51
1	254478	8.175	183.51
1	254499	8.176	183.51
1	254944	8.189	183.51
1	255016	8.19	183.51
1	255132	8.195	183.51
1	255205	8.196	183.51
1	255398	8.202	186
1	255660	8.209	186
1	255684	8.21	186
1	255847	8.215	186
1	255873	8.216	186
1	258612	8.308	189
1	292652	9.448	222
1	292682	9.449	222
1	292759	9.45	222
1	292786	9.451	222
1	292824	9.452	222
1	292847	9.453	222
1	292876	9.454	222
1	292901	9.455	222
1	292978	9.456	222
1	293009	9.457	222
1	293041	9.458	222
1	293072	9.459	222
1	293265	9.465	222
1	293434	9.468	222
1	293469	9.469	222
1	293498	9.47	222
1	293523	9.471	222
1	293556	9.472	222
1	293579	9.473	222
1	293660	9.474	224.22
1	293687	9.475	224.22
1	293716	9.476	224.22
1	293742	9.477	224.22
1	293798	9.479	224.22
1	294154	9.488	224.22
1	294185	9.489	224.22
1	294210	9.49	224.22
1	294235	9.491	224.22
1	294320	9.492	224.22
1	294345	9.493	224.22
1	294378	9.494	224.22
1	294403	9.495	224.22
1	294429	9.496	224.22
1	294456	9.497	224.22
1	294534	9.498	224.22
1	294565	9.499	224.22
1	294594	9.5	225
1	294618	9.501	225
1	294647	9.502	225
1	294670	9.503	225
1	294751	9.504	225
1	294778	9.505	225
1	294807	9.506	225
1	294871	9.507	225
1	294898	9.508	225
1	294927	9.509	225
1	295003	9.51	225
1	295032	9.511	225
1	295069	9.512	225
1	295096	9.513	225
1	295129	9.514	225
1	295158	9.515	225
1	295239	9.516	225
1	295268	9.517	225
1	295298	9.518	225
1	295327	9.519	225
1	295351	9.52	225
1	295374	9.521	225
1	295455	9.522	225
1	295480	9.523	225
1	295513	9.524	225
1	295538	9.525	225
1	295563	9.526	225
1	295627	9.527	225
1	295705	9.528	225
1	295736	9.529	225
1	295764	9.53	225
1	295787	9.531	225
1	295816	9.532	225
1	295839	9.533	225
1	295920	9.534	225
1	295951	9.535	225
1	295984	9.536	225
1	296015	9.537	225
1	296045	9.538	225
1	296078	9.539	225
1	296158	9.54	225
1	296183	9.541	225
1	296217	9.542	225
1	296240	9.543	225
1	296269	9.544	226.32
1	296294	9.545	226.32
1	296371	9.546	226.32
1	296437	9.547	226.32
1	296468	9.548	226.32
1	296496	9.549	226.32
1	306588	9.88	236.13
1	306608	9.881	236.13
1	306686	9.882	236.13
1	306709	9.883	236.13
1	306742	9.884	236.13
1	306766	9.885	236.13
1	307341	9.904	237
1	307367	9.905	237
1	307444	9.906	237
1	308094	9.928	237.72
1	308834	9.952	238.44
1	308854	9.953	238.44
1	308932	9.954	238.44
1	308957	9.955	238.44
1	308986	9.956	238.44
1	309012	9.957	238.44
1	309760	9.982	239.22
1	309780	9.983	239.22
1	309862	9.984	239.22
1	309891	9.985	239.22
1	309923	9.986	239.22
1	310558	10.006	240
1	310582	10.007	240
1	310657	10.008	240
1	310686	10.009	240
1	310714	10.01	240
1	310736	10.011	240
1	313465	10.102	243
1	313489	10.103	243
1	313571	10.104	243
1	313599	10.105	243
1	319579	10.306	249.12
1	319603	10.307	249.12
1	319678	10.308	249.12
1	319707	10.309	249.12
1	319735	10.31	249.12
1	319757	10.311	249.12
1	322476	10.402	252
1	322496	10.403	252
1	322574	10.404	252
1	322599	10.405	252
1	322632	10.406	252
1	322658	10.407	252
1	324479	10.468	253.89
1	324505	10.469	253.89
1	324582	10.47	253.89
1	324609	10.471	253.89
1	324645	10.472	253.89
1	325595	10.504	255
1	325621	10.505	255
1	325699	10.506	255
1	325730	10.507	255
1	325763	10.508	255
1	333326	10.762	262.71
1	333346	10.763	262.71
1	333424	10.764	262.71
1	333449	10.765	262.71
1	333481	10.766	262.71
1	334072	10.786	263.34
1	334096	10.787	263.34
1	334171	10.788	263.34
1	334200	10.789	263.34
1	334231	10.79	263.34
1	334997	10.816	264.3
1	335021	10.817	264.3
1	335096	10.818	264.3
1	335130	10.819	264.3
1	335162	10.82	264.3
1	335184	10.821	264.3
1	344226	11.104	273
1	344248	11.105	273
1	344322	11.106	273
1	344350	11.107	273
1	344384	11.108	273
1	344413	11.109	273
1	344441	11.11	273
1	344464	11.111	273
1	344550	11.112	273
1	344575	11.113	273
1	344608	11.114	273
1	344633	11.115	273
1	344658	11.116	273
1	344685	11.117	273
1	344763	11.118	273
1	344798	11.119	273
1	344826	11.12	273
1	344853	11.121	273
1	344882	11.122	273
1	344946	11.123	273
1	345027	11.124	273
1	345054	11.125	273
1	345083	11.126	273
1	345110	11.127	273
1	345136	11.128	273
1	345165	11.129	273
1	345241	11.13	273
1	345266	11.131	273
1	345303	11.132	273
1	345326	11.133	273
1	345359	11.134	273
1	345384	11.135	273
1	345465	11.136	273
1	345494	11.137	273
1	345524	11.138	273
1	345554	11.139	273
1	345578	11.14	273
1	345601	11.141	273
1	345683	11.142	273
1	345749	11.143	273
1	345782	11.144	273
1	345811	11.145	273
1	345836	11.146	273
1	345867	11.147	273
1	345945	11.148	273
1	345976	11.149	273
1	346004	11.15	273
1	346027	11.151	273
1	346056	11.152	273
1	346079	11.153	273
1	346160	11.154	273
1	346188	11.155	273
1	346221	11.156	273
1	346248	11.157	273
1	346278	11.158	273
1	346307	11.159	273
1	346387	11.16	273
1	346412	11.161	273
1	346445	11.162	273
1	346506	11.163	273
1	346535	11.164	273
1	346560	11.165	273
1	346637	11.166	273
1	346670	11.167	273
1	346700	11.168	273
1	346733	11.169	273
1	346757	11.17	273
1	346784	11.171	273
1	346865	11.172	273
1	346890	11.173	273
1	346923	11.174	273
1	346948	11.175	273
1	346974	11.176	273
1	347001	11.177	273
1	347079	11.178	273
1	347110	11.179	273
1	347142	11.18	273
1	347165	11.181	273
1	347198	11.182	273
1	347258	11.183	273
1	347343	11.184	273
1	347370	11.185	273
1	347399	11.186	273
1	347426	11.187	273
1	347452	11.188	275.64
1	347481	11.189	275.64
1	347557	11.19	275.64
1	347587	11.191	275.64
1	347620	11.192	275.64
1	347642	11.193	275.64
1	348081	11.206	276
1	348109	11.207	276
1	348188	11.208	276
1	348220	11.209	276
1	351529	11.314	279
1	351551	11.315	279
1	351625	11.316	279
1	351655	11.317	279
1	351737	11.32	279
1	351759	11.321	279
1	351838	11.322	279
1	351901	11.323	279
1	351983	11.326	279
1	352009	11.327	279
1	352084	11.328	279
1	352116	11.329	279
1	352203	11.332	279
1	352229	11.333	279
1	352312	11.334	279
1	352340	11.335	279
1	352421	11.338	279
1	352449	11.339	279
1	352522	11.34	279
1	352549	11.341	279
1	352670	11.344	279
1	352694	11.345	279
1	352768	11.346	279
1	352798	11.347	279
1	352880	11.35	279
1	352902	11.351	279
1	352980	11.352	279
1	353006	11.353	279
1	353096	11.356	279
1	353127	11.357	279
1	353206	11.358	279
1	353238	11.359	279
1	353317	11.362	279
1	353376	11.363	279
1	353454	11.364	279
1	353483	11.365	279
1	353564	11.368	279
1	353592	11.369	279
1	353665	11.37	279
1	353691	11.371	279
1	353775	11.374	279
1	353799	11.375	279
1	353873	11.376	279
1	353903	11.377	279
1	353994	11.38	279
1	354020	11.381	279
1	354102	11.382	279
1	354165	11.383	279
1	354248	11.386	279
1	354274	11.387	279
1	354349	11.388	279
1	354381	11.389	279
1	354460	11.392	281.73
1	354482	11.393	281.73
1	354560	11.394	281.73
1	354588	11.395	281.73
1	377127	12.106	303
1	377151	12.107	303
1	377226	12.108	303
1	377261	12.109	303
1	377744	12.124	303.6
1	377770	12.125	303.6
1	377848	12.126	303.6
1	377878	12.127	303.6
1	399254	12.808	324
1	399280	12.809	324
1	399353	12.81	324
1	399377	12.811	324
1	399410	12.812	324
1	399432	12.813	324
1	400048	12.832	324.75
1	404833	12.982	329.22
1	405037	12.988	329.22
1	405242	12.994	329.22
1	405493	13	330
1	405746	13.006	330
1	405952	13.012	330
1	406193	13.018	330
1	406404	13.024	330
1	406608	13.03	330
1	406847	13.036	330
1	407054	13.042	330
1	407262	13.048	331.32
1	407639	13.057	331.32
1	407670	13.058	331.32
1	407700	13.059	331.32
1	407727	13.06	331.32
1	407754	13.061	331.32
1	407836	13.062	331.32
1	407861	13.063	331.32
1	407894	13.064	331.32
1	407919	13.065	331.32
1	407944	13.066	331.32
1	407971	13.067	331.32
1	408049	13.068	331.32
1	408080	13.069	331.32
1	408108	13.07	331.32
1	408131	13.071	331.32
1	408160	13.072	331.32
1	408183	13.073	331.32
1	408264	13.074	331.32
1	408292	13.075	331.32
1	408358	13.076	331.32
1	408385	13.077	331.32
1	408411	13.078	331.32
1	408440	13.079	331.32
1	408521	13.08	331.32
1	408550	13.081	331.32
1	408587	13.082	332.43
1	408614	13.083	332.43
1	408647	13.084	332.43
1	408676	13.085	332.43
1	408753	13.086	332.43
1	408782	13.087	332.43
1	408812	13.088	332.43
1	408840	13.089	332.43
1	409450	13.108	333
1	409480	13.109	333
1	409556	13.11	333
1	411201	13.162	334.68
1	411221	13.163	334.68
1	411299	13.164	334.68
1	411324	13.165	334.68
1	411353	13.166	334.68
1	411379	13.167	334.68
1	412570	13.204	336
1	412592	13.205	336
1	412669	13.206	336
1	413747	13.24	337.08
1	413767	13.241	337.08
1	413845	13.242	337.08
1	413868	13.243	337.08
1	413901	13.244	337.08
1	413925	13.245	337.08
1	415291	13.288	338.52
1	415317	13.289	338.52
1	415390	13.29	338.52
1	415417	13.291	338.52
1	415454	13.292	338.52
1	415481	13.293	338.52
1	415514	13.294	338.52
1	415543	13.295	338.52
1	415658	13.296	338.52
1	415691	13.297	338.52
1	415725	13.298	338.52
1	415754	13.299	338.52
1	415780	13.3	339
1	415803	13.301	339
1	415888	13.302	339
1	415913	13.303	339
1	415946	13.304	339
1	415971	13.305	339
1	415996	13.306	339
1	416023	13.307	339
1	416101	13.308	339
1	416132	13.309	339
1	416160	13.31	339
1	416183	13.311	339
1	416213	13.312	339
1	416236	13.313	339
1	416317	13.314	339
1	416344	13.315	339
1	416410	13.316	339
1	416437	13.317	339
1	416463	13.318	339
1	416492	13.319	339
1	416568	13.32	339
1	416597	13.321	339
1	416634	13.322	339.66
1	416661	13.323	339.66
1	416694	13.324	339.66
1	416719	13.325	339.66
1	416796	13.326	339.66
1	416825	13.327	339.66
1	416855	13.328	339.66
1	416884	13.329	339.66
1	416909	13.33	339.66
1	416936	13.331	339.66
1	417017	13.332	339.66
1	417042	13.333	339.66
1	417075	13.334	339.66
1	417100	13.335	339.66
1	417163	13.336	339.66
1	417190	13.337	339.66
1	417272	13.338	339.66
1	417303	13.339	339.66
1	417331	13.34	339.66
1	417354	13.341	339.66
1	417383	13.342	339.66
1	417407	13.343	339.66
1	417488	13.344	339.66
1	417519	13.345	339.66
1	417547	13.346	339.66
1	417696	13.35	339.66
1	417718	13.351	339.66
1	417747	13.352	339.66
1	417950	13.357	339.66
1	417981	13.358	339.66
1	418006	13.359	339.66
1	418176	13.364	340.89
1	418197	13.365	340.89
1	418382	13.371	340.89
1	418610	13.377	340.89
1	418632	13.378	340.89
1	418822	13.384	340.89
1	419006	13.39	340.89
1	419231	13.396	340.89
1	419254	13.397	340.89
1	419442	13.403	342
1	419634	13.409	342
1	419816	13.415	342
1	419954	13.417	342.46281420207
1	420140	13.423	342.46281420207
1	420329	13.429	342.46281420207
1	420510	13.435	342.46281420207
1	420599	13.437	342.46281420207
1	420784	13.443	342.46281420207
1	420974	13.449	342.46281420207
1	421155	13.455	342.46281420207
1	421240	13.457	342.46281420207
1	421425	13.463	342.46281420207
1	421614	13.469	344.07
1	421795	13.475	344.07
1	421934	13.477	344.07
1	422120	13.483	344.07
1	422311	13.489	344.07
1	422493	13.495	344.07
1	422581	13.497	344.07
1	422767	13.503	345
1	422975	13.51	345
1	423200	13.516	345.46281141807
1	423224	13.517	345.46281141807
1	423909	13.537	345.46281141807
1	423940	13.538	345.46281141807
1	423965	13.539	345.46281141807
1	424107	13.543	345.46281141807
1	424137	13.544	345.46281141807
1	424159	13.545	345.46281141807
1	424309	13.549	345.46281141807
1	424334	13.55	345.46281141807
1	424353	13.551	345.46281141807
1	424502	13.555	345.46281141807
1	424565	13.556	345.46281141807
1	424593	13.557	345.46281141807
1	424621	13.558	345.46281141807
1	424654	13.559	345.46281141807
[...]
14	29754	0.953	797.48163693599
14	30439	0.973	822.19938335046
14	31072	0.993	845.92145015106
14	31935	1.019	863.59175662414
14	32435	1.033	890.60987415295
14	33073	1.053	911.68091168091
14	33705	1.073	931.96644920783
14	34387	1.093	951.50960658737
14	35213	1.119	965.14745308311
14	35662	1.133	988.52603706973
14	36347	1.153	1006.0711188205
14	36982	1.173	1023.0179028133
14	37610	1.193	1039.3964794635
14	38484	1.219	1050.0410172272
14	38935	1.233	1070.5596107056
14	39563	1.253	1085.3950518755
14	40248	1.273	1099.7643362137
14	41109	1.3	1107.6923076923
14	41816	1.32	1121.2121212121
14	42470	1.34	1134.328358209
14	43127	1.36	1147.0588235294
14	44271	1.393	1148.600143575
14	44522	1.401	1170.5924339757
14	45570	1.429	1175.6473058083
14	45938	1.44	1194.4444444444
14	46594	1.46	1205.4794520548
14	47251	1.48	1216.2162162162
14	47957	1.5	1226.6666666667
14	48390	1.513	1242.5644415069
14	49025	1.533	1252.446183953
14	49654	1.553	1262.0734063104
14	50339	1.573	1271.4558169104
14	50972	1.593	1280.6026365348
14	51792	1.619	1284.7436689314
14	52482	1.639	1293.4716290421
14	52932	1.653	1306.7150635209
14	53566	1.673	1315.0029886432
14	132872	4.328	517.56007393715
14	133505	4.348	524.37902483901
14	134187	4.368	531.13553113553
14	134819	4.388	537.83044667274
14	135455	4.408	544.46460980036
14	136136	4.428	551.03884372177
14	136768	4.448	557.55395683453
14	137402	4.468	564.01074306177
14	138084	4.488	570.40998217469
14	147361	4.769	545.18767037115
14	147362	4.769	553.57517299224
14	147363	4.769	561.96267561334
14	147364	4.769	570.35017823443
14	147365	4.769	578.73768085553
14	147366	4.769	587.12518347662
14	147367	4.769	595.51268609771
14	147368	4.769	603.90018871881
14	147369	4.769	612.2876913399
14	147370	4.769	620.675193961
14	147371	4.769	629.06269658209
14	147372	4.769	637.45019920319
14	152219	4.929	624.87319943193
14	152666	4.943	631.1956301841
14	153348	4.963	636.71166633085
14	153982	4.983	642.18342364038
14	154654	5.003	647.61143314012
14	155338	5.023	652.99621739996
14	155970	5.043	658.33829069998
14	156604	5.063	663.63815919415
14	157287	5.083	668.89632107023
14	157923	5.103	674.11326670586
14	158551	5.123	679.289478821
14	159426	5.149	683.62788891047
14	186320	6.049	588.52702926103
14	186960	6.069	593.17844784973
14	187592	6.089	597.79931023157
14	188277	6.109	602.38991651661
14	188910	6.129	606.9505628977
14	189539	6.149	611.4815417141
14	190224	6.169	615.98314151402
14	190856	6.189	620.45564711585
14	191487	6.209	624.89933966822
14	192172	6.229	629.31449670894
14	192806	6.249	633.70139222276
14	193437	6.269	638.06029669804
14	194120	6.289	642.39147718238
14	194755	6.309	646.69519733714
14	195386	6.329	650.97171749091
14	196069	6.349	655.22129469208
14	196703	6.369	659.44418276024
14	197333	6.389	663.64063233683
14	198210	6.415	667.18628215121
14	198670	6.429	671.95520298647
14	199302	6.449	676.07380989301
14	200169	6.475	679.53667953668
14	200627	6.489	684.23485899214
14	201260	6.509	688.27776924259
14	201943	6.529	692.29591055292
14	202575	6.549	696.28950984883
14	210712	6.821	674.38791965987
14	221889	7.192	645.16129032258
14	222755	7.218	648.37905236908
14	223211	7.232	652.65486725664
14	223845	7.252	656.37065637066
14	224527	7.272	660.06600660066
14	225161	7.292	663.74108612178
14	225980	7.318	666.84886581033
14	226670	7.338	670.482420278
14	227125	7.352	674.64635473341
14	227757	7.372	678.24199674444
14	228438	7.392	681.81818181818
14	229071	7.412	685.37506745818
14	229705	7.432	688.91280947255
14	230385	7.452	692.43156199678
14	231016	7.472	695.93147751606
14	231650	7.492	699.41270688735
14	232332	7.512	702.87539936102
14	232965	7.532	706.31970260223
14	233600	7.552	709.74576271186
14	234281	7.572	713.15372424723
14	234913	7.592	716.54373024236
14	235772	7.619	719.2544953406
14	236482	7.639	722.60767116115
14	237141	7.659	725.94333463899
14	237981	7.685	728.69225764476
14	238484	7.698	732.65783320343
14	238941	7.712	736.51452282158
14	239771	7.738	739.20909795813
14	240305	7.753	742.93821746421
14	240953	7.773	746.1726489129
14	241595	7.793	749.39047863467
14	251151	8.079	727.81284812477
14	251152	8.079	732.76395593514
14	251153	8.079	737.71506374551
14	251154	8.079	742.66617155589
14	251155	8.079	747.61727936626
14	251156	8.079	752.56838717663
14	251157	8.079	757.519494987
14	251158	8.079	762.47060279738
14	251159	8.079	767.42171060775
14	252754	8.125	768
14	252755	8.125	772.92307692308
14	252756	8.125	777.84615384615
14	252757	8.125	782.76923076923
14	252758	8.125	787.69230769231
14	252759	8.125	792.61538461538
14	253662	8.151	794.99447920501
14	254074	8.164	798.62812346889
14	254623	8.179	802.05404083629
14	255466	8.205	804.38756855576
14	255944	8.219	807.8841708237
14	293426	9.468	705.53443177017
14	441894	14.072	477.5440591245
14	453979	14.427	468.56588341305
14	453980	14.427	471.33846260484
14	453981	14.427	474.11104179663
14	453982	14.427	476.88362098842
14	453983	14.427	479.65620018022
14	453984	14.427	482.42877937201
14	453985	14.427	485.2013585638
14	453986	14.427	487.9739377556
14	460636	14.627	484.03637109455
14	460637	14.627	486.7710398578
14	460638	14.627	489.50570862104
14	460639	14.627	492.24037738429
14	460640	14.627	494.97504614754
14	460641	14.627	497.70971491078
14	460642	14.627	500.44438367403
14	460643	14.627	503.17905243727
14	460644	14.627	505.91372120052
14	460645	14.627	508.64838996377
14	460646	14.627	511.38305872701
14	460647	14.627	514.11772749026
14	460828	14.632	516.67577911427
14	461152	14.64	519.12568306011
14	461819	14.661	521.1104290294
14	462435	14.68	523.16076294278
14	463298	14.706	524.9558003536
14	463935	14.726	526.95911992394
14	464575	14.746	528.95700528957
14	465261	14.766	530.94947853176
14	465911	14.786	532.93656161234
14	466566	14.806	534.91827637444
14	467267	14.826	536.89464454337
14	467754	14.841	539.04723401388
14	468562	14.866	540.83142741827
14	472116	14.971	539.71010620533
14	472117	14.971	542.38193841427
14	472118	14.971	545.0537706232
14	472119	14.971	547.72560283214
14	472120	14.971	550.39743504108
14	472420	14.98	552.73698264352
14	473328	15.006	554.44488871118
14	473783	15.02	556.59121171771
14	474603	15.046	558.28791705437
14	475296	15.066	560.20177883977
14	475935	15.086	562.11056608776
14	476392	15.1	564.23841059603
14	477256	15.126	565.91299748777
14	477892	15.146	567.80668163211
14	478532	15.166	569.69537122511
14	479408	15.192	571.35334386519
14	479867	15.206	573.45784558727
14	480506	15.226	575.33166951268
14	481195	15.246	577.20057720058
14	481833	15.266	579.06458797327
14	482474	15.286	580.92372105194
14	483350	15.312	582.54963427377
14	483994	15.332	584.39864336029
14	484457	15.346	586.47204483253
14	485330	15.372	588.08222742649
14	485787	15.386	590.14688678019
14	486464	15.407	591.93872914909
14	487172	15.427	593.76417968497
14	488016	15.453	595.35365301236
14	488490	15.467	597.40091808366
14	489383	15.493	598.9801845995
14	490029	15.51	600.90264345584
14	490659	15.528	602.78207109737
14	491524	15.554	604.3461489006
14	492019	15.568	606.37204522097
14	492930	15.594	607.92612543286
14	493422	15.608	609.9436186571
14	494244	15.633	611.52689822811
14	494720	15.647	613.53614111331
14	495614	15.673	615.07050341351
14	496272	15.693	616.83553176576
14	542146	17.067	569.52012656003
14	542800	17.087	571.19447533212
14	543510	17.107	572.86490910154
14	544355	17.133	574.33023988794
14	544833	17.147	576.19408642911
14	545741	17.173	577.65096372212
14	546404	17.193	579.30553132089
14	546888	17.207	581.15883070843
14	547595	17.227	582.80606025425
14	548436	17.253	584.24621804903
14	549077	17.272	585.91940713293
14	549433	17.281	587.92893929749
14	550273	17.307	589.35690760964
14	550926	17.327	590.98516765741
14	551632	17.347	592.60967314233
14	552290	17.367	594.23043703576
14	553349	17.398	595.47074376365
14	553477	17.401	597.66680075858
14	554275	17.426	599.10478595203
14	554731	17.44	600.91743119266
14	555414	17.46	602.52004581901
14	556229	17.486	603.9117007892
14	556691	17.5	605.71428571429
14	557372	17.52	607.30593607306
14	558185	17.546	608.68574033968
14	558641	17.56	610.47835990888
14	559503	17.586	611.85033549414
14	560142	17.606	613.42724071339
14	560783	17.626	615.0005673437
14	561471	17.646	616.57032755299
14	561926	17.66	618.34654586636
14	562560	17.68	619.90950226244
14	563425	17.706	621.25833050943
14	563879	17.72	623.02483069977
14	564516	17.74	624.57722660654
14	565198	17.76	626.12612612613
14	566013	17.786	627.45979984257
14	566472	17.8	629.21348314607
14	567335	17.826	630.53966116908
14	567791	17.84	632.2869955157
14	568607	17.866	633.60573155715
14	569295	17.886	635.13362406351
14	569932	17.906	636.65810342902
14	570391	17.92	638.39285714286
14	571253	17.946	639.69686838293
14	571890	17.966	641.21117666704
14	572530	17.986	642.72211720227
14	573446	18.012	644.01510104375
14	573915	18.026	645.73393986464
14	574568	18.046	647.23484428682
14	575275	18.066	648.73242555076
14	576111	18.092	650.01105460977
14	576772	18.112	651.50176678445
14	577465	18.132	652.98919038165
14	578109	18.152	654.47333627149
14	578568	18.166	656.17086865573
14	579256	18.186	657.64874078962
14	579897	18.206	659.12336592332
14	580538	18.226	660.59475474597
14	581226	18.246	662.06291789981
14	581864	18.266	663.52786598051
14	582507	18.286	664.98960953735
14	583195	18.306	666.44815907353
14	583835	18.326	667.90352504638
14	584474	18.346	669.35571786766
14	585162	18.366	670.80474790374
14	585800	18.386	672.25062547591
14	586441	18.406	673.69336086059
14	587129	18.426	675.13296428959
14	587583	18.44	676.78958785249
14	588220	18.46	678.22318526544
14	589085	18.486	679.43308449638
14	589540	18.5	681.08108108108
14	590357	18.526	682.28435711972
14	590861	18.54	683.92664509169
14	591674	18.566	685.12334374663
14	592132	18.58	686.75995694295
14	592846	18.601	688.13504650288
14	593841	18.632	689.13696865608
14	594145	18.641	690.95005632745
14	594841	18.661	692.35303574299
14	595650	18.686	693.56737664562
14	596108	18.7	695.1871657754
14	596971	18.726	696.35800491296
14	597427	18.74	697.97225186766
14	598059	18.76	699.36034115139
14	599108	18.792	700.29799914857
14	599565	18.806	701.90364777199
14	600024	18.82	703.50690754516
14	600706	18.84	704.88322717622
14	601337	18.86	706.25662778367
14	601971	18.88	707.62711864407
14	602837	18.906	708.76970273987
14	603477	18.926	710.13420691113
14	604117	18.946	711.49583025441
14	604805	18.966	712.85458188337
14	605259	18.98	714.43624868282
14	606321	19.012	715.33768146434
14	607050	19.033	716.65002889718
14	607529	19.047	718.22334225862
14	651171	20.457	670.67507454661
14	651172	20.457	672.63039546366
14	651173	20.457	674.5857163807
14	651174	20.457	676.54103729775
14	651175	20.457	678.49635821479
14	651176	20.457	680.45167913184
14	651177	20.457	682.40700004888
14	651178	20.457	684.36232096593
14	651179	20.457	686.31764188297
14	651180	20.457	688.27296280002
14	651181	20.457	690.22828371706
14	655336	20.578	688.11351929245
14	655337	20.578	690.05734279327
14	655338	20.578	692.0011662941
14	655339	20.578	693.94498979493
14	655340	20.578	695.88881329575
14	655341	20.578	697.83263679658
14	655342	20.578	699.77646029741
14	655343	20.578	701.72028379823
14	655344	20.578	703.66410729906
14	655345	20.578	705.60793079988
14	655346	20.578	707.55175430071
14	655347	20.578	709.49557780154
14	655364	20.578	711.43940130236
14	669365	20.998	699.11420135251
14	669366	20.998	701.01914468045
14	669367	20.998	702.92408800838
14	669368	20.998	704.82903133632
14	669369	20.998	706.73397466425
14	669370	20.998	708.63891799219
14	669371	20.998	710.54386132013
14	669372	20.998	712.44880464806
14	670788	21.041	712.89387386531
14	671777	21.069	713.84498552376
14	672409	21.089	715.06472568638
14	676461	21.211	712.83767856301
14	676462	21.211	714.72349252746
14	676463	21.211	716.60930649191
14	676464	21.211	718.49512045637
14	676465	21.211	720.38093442082
14	676566	21.215	722.13056799434
14	677255	21.235	723.33411820108
14	677713	21.249	724.73998776413
14	678348	21.269	725.93916028022
14	679031	21.289	727.13607966556
14	682993	21.409	724.92876827502
14	682994	21.409	726.79714138914
14	682995	21.409	728.66551450325
14	682996	21.409	730.53388761736
14	682997	21.409	732.40226073147
14	683023	21.41	734.23633815974
14	683640	21.429	735.45195762751
14	684268	21.449	736.63107837195
14	684952	21.469	737.80800223578
14	685586	21.489	738.98273535297
14	686399	21.515	739.94887287939
14	686908	21.529	741.32565376933
14	687542	21.549	742.49385122279
14	688175	21.569	743.6598822384
14	688858	21.589	744.82375283709
14	689492	21.609	745.98546901754
14	690122	21.629	747.14503675621
14	690805	21.649	748.30246200748
14	691437	21.669	749.45775070377
14	692067	21.689	750.61090875559
14	692937	21.715	751.55422518996
14	693759	21.741	752.49528540546
14	694037	21.749	754.05765782335
14	694904	21.775	754.99425947187
14	695363	21.789	756.34494469687
14	696175	21.815	757.27710291084
14	696684	21.829	758.6238490082
14	697499	21.855	759.55159002517
14	698136	21.875	760.68571428571
14	698644	21.889	762.02658869752
14	699281	21.909	763.15669359624
14	699911	21.929	764.28473710612
14	700594	21.949	765.41072486218
14	701409	21.975	766.32536973834
14	701864	21.989	767.6565555505
14	702588	22.009	768.7764096506
14	703220	22.029	769.89423033274
14	703850	22.049	771.0100231303
14	704723	22.075	771.91392978482
14	705182	22.089	773.23554710489
14	705813	22.109	774.34528924872
14	706495	22.129	775.45302544173
14	707129	22.149	776.55876111788
14	707941	22.175	777.45208568207
14	708448	22.189	778.76425255757
14	709082	22.209	779.86401909136
14	709712	22.229	780.96180664897
14	710396	22.249	782.05762056722
14	711030	22.269	783.15146616373
14	711660	22.289	784.24334873705
14	712525	22.315	785.12211516917
14	712983	22.329	786.42124591339
14	713615	22.349	787.50727101884
14	714298	22.369	788.59135410613
14	714934	22.389	789.67350037965
14	715567	22.409	790.75371502521
14	716250	22.429	791.83200321013
14	716885	22.449	792.9083700833
14	717514	22.469	793.98282077529
14	718197	22.489	795.05536039842
14	718831	22.509	796.12599404683
14	719644	22.535	796.98247171067
14	720151	22.549	798.26156370571
14	720784	22.569	799.32650981435
14	721413	22.589	800.38957014476
14	722279	22.615	801.23811629449
14	722740	22.629	802.51005347121
14	723370	22.649	803.56748642324
14	724053	22.669	804.6230535092
14	724686	22.689	805.67675966327
14	725497	22.715	806.51551837993
14	726008	22.729	807.77860882573
14	726641	22.749	808.8267616159
14	727271	22.769	809.8730730379
14	727955	22.789	810.9175479398
14	728772	22.815	811.7466579005
14	729226	22.829	813.00100749047
14	730094	22.855	813.82629621527
14	730553	22.869	815.07717871354
14	731184	22.889	816.11254314299
14	731868	22.909	817.14609978611
14	732502	22.929	818.17785337346
14	733132	22.949	819.20780861911
14	733814	22.969	820.23597022073
14	734447	22.989	821.26234285963
14	735116	23.009	822.28693120083
14	735800	23.029	823.30973989318
14	736432	23.049	824.33077356935
14	737069	23.069	825.35003684598
14	737753	23.089	826.3675343237
14	738387	23.109	827.38327058722
14	739201	23.135	828.18240760752
14	739708	23.149	829.40947773122
14	740342	23.169	830.4199577021
14	740974	23.189	831.4286946397
14	741658	23.209	832.43569305011
14	742319	23.23	833.4050796384
14	743015	23.25	834.40860215054
14	743657	23.27	835.41039965621
14	744302	23.29	836.4104765994
14	747003	23.371	835.22313978863
14	747004	23.371	836.93466261606
14	747005	23.371	838.6461854435
14	747178	23.376	840.17796030116
14	747644	23.39	841.38520735357
14	756905	23.67	833.12209547951
14	756906	23.67	834.8119983101
14	756907	23.67	836.50190114068
14	756908	23.67	838.19180397127
14	756909	23.67	839.88170680186
14	756910	23.67	841.57160963245
14	756911	23.67	843.26151246303
14	756912	23.67	844.95141529362
14	756913	23.67	846.64131812421
14	756914	23.67	848.3312209548
14	756915	23.67	850.02112378538
14	756916	23.67	851.71102661597
14	756917	23.67	853.40092944656
14	757540	23.689	854.40499810038
14	758176	23.709	855.37137795774
14	758806	23.729	856.33612878756
14	759490	23.749	857.29925470546
14	760341	23.776	858.00807537012
14	761045	23.796	858.96789376366
14	766721	23.971	854.36569187769
14	766722	23.971	856.03437486963
14	766723	23.971	857.70305786158
14	766724	23.971	859.37174085353
14	766725	23.971	861.04042384548
14	766726	23.971	862.70910683743
14	769580	24.063	861.07301666459
14	770052	24.077	862.23366698509
14	770589	24.092	863.35713099784
14	771235	24.112	864.299933643
14	780883	24.398	855.80785310271
14	780884	24.398	857.4473317485
14	780885	24.398	859.08681039429
14	780886	24.398	860.72628904009
14	780887	24.398	862.36576768588
14	780888	24.398	864.00524633167
14	780889	24.398	865.64472497746
14	780890	24.398	867.28420362325
14	780891	24.398	868.92368226904
14	780892	24.398	870.56316091483
14	780893	24.398	872.20263956062
14	780894	24.398	873.84211820641
14	780911	24.398	875.4815968522
14	781756	24.424	876.18735669833
14	782392	24.443	877.14274025283
14	782943	24.458	878.24024858942
14	783599	24.478	879.15679385571
14	784305	24.498	880.0718425994
14	798115	24.879	868.20209815507
14	798116	24.879	869.80987981832
14	798117	24.879	871.41766148157
14	802001	24.983	869.39118600648
14	833700	25.991	837.21288138202
14	865189	27.04	806.21301775148
14	865877	27.06	807.09534368071
14	866511	27.08	807.97636632201
14	867148	27.1	808.85608856089
14	867830	27.12	809.73451327434
14	868462	27.14	810.61164333088
14	869096	27.16	811.48748159057
14	869778	27.18	812.36203090508
14	870594	27.206	813.05594354187
14	871055	27.22	814.10727406319
14	871738	27.24	814.97797356828
14	872370	27.26	815.84739545121
14	873005	27.28	816.71554252199
14	873686	27.3	817.58241758242
14	874506	27.326	818.26831588963
14	874965	27.34	819.31236283833
14	875646	27.36	820.17543859649
14	876464	27.386	820.85737238005
14	876921	27.4	821.89781021898
14	877601	27.42	822.75711159737
14	878235	27.44	823.61516034985
14	878870	27.46	824.4719592134
14	879551	27.48	825.32751091703
14	880183	27.5	826.18181818182
14	880815	27.52	827.03488372093
14	881501	27.54	827.88671023965
14	882133	27.56	828.73730043541
14	882768	27.58	829.58665699782
14	883449	27.6	830.4347826087
14	884082	27.62	831.28167994207
14	884715	27.64	832.12735166425
14	885397	27.66	832.97180043384
14	886028	27.68	833.81502890173
14	886664	27.7	834.65703971119
14	887345	27.72	835.49783549784
14	887977	27.74	836.33741888969
14	888611	27.76	837.1757925072
14	889294	27.78	838.01295896328
14	889925	27.8	838.84892086331
14	890557	27.82	839.68368080518
14	891241	27.84	840.51724137931
14	891873	27.86	841.3496051687
14	892506	27.88	842.18077474892
14	893188	27.9	843.01075268817
14	893821	27.92	843.83954154728
14	894457	27.94	844.66714387974
14	895137	27.96	845.49356223176
14	895767	27.98	846.31879914224
14	896407	28	847.14285714286
14	897126	28.02	847.96573875803
14	897756	28.04	848.78744650499
14	898394	28.06	849.6079828938
14	899074	28.08	850.42735042735
14	899708	28.1	851.24555160142
14	900343	28.12	852.06258890469
14	901026	28.14	852.87846481876
14	901657	28.16	853.69318181818
14	902291	28.18	854.50674237048
14	902977	28.2	855.31914893617
14	903608	28.22	856.13040396882
14	904240	28.24	856.94050991501
14	904921	28.26	857.74946921444
14	905554	28.28	858.55728429986
14	906188	28.3	859.36395759717
14	906869	28.32	860.16949152542
14	907499	28.34	860.97388849682
14	908133	28.36	861.77715091678
14	908816	28.38	862.57928118393
14	909448	28.4	863.38028169014
14	910080	28.42	864.18015482055
14	910762	28.44	864.97890295359
14	911395	28.46	865.776528461
14	912027	28.48	866.57303370787
14	912708	28.5	867.36842105263

